441300
  DSViewer          3D                             0

 39 42  0  0  0  0  0  0  0  0999 V2000
    9.2051    5.4349    0.2329 O   0  0
    3.9505   -3.8593    0.2507 N   0  0
    6.1484    0.1850   -0.0964 N   0  0
    6.3159   -1.9899    0.0906 N   0  0
    2.6726   -1.8337    0.0947 N   0  0
    3.6413    0.3328   -0.0821 N   0  0
    1.3228    0.1955   -0.0412 N   0  0
    2.8400   -4.8372    0.2540 C   0  0
    1.4057   -4.3921    0.6040 C   0  0
    1.8068   -4.6412   -0.8710 C   0  0
    6.5662    1.5572   -0.3149 C   0  0  2  0  0  0
    8.0523    1.8094   -0.0446 C   0  0
    8.0311    3.3322   -0.1513 C   0  0  1  0  0  0
    5.9527    2.5979    0.5831 C   0  0
    6.8018    3.6296    0.6782 C   0  0
    3.7983   -2.4335    0.1373 C   0  0
    4.8683   -0.3087   -0.0397 C   0  0
    4.9657   -1.6050    0.0686 C   0  0
    9.3332    4.0122    0.3277 C   0  0
    7.0273   -0.9213   -0.0074 C   0  0
    2.5857   -0.3969   -0.0157 C   0  0
    3.0773   -5.8940    0.4492 H   0  0
    0.7287   -5.0812    1.1089 H   0  0
    1.2198   -3.3770    0.9547 H   0  0
    1.9028   -3.8012   -1.5590 H   0  0
    1.4117   -5.5055   -1.4048 H   0  0
    6.3313    1.8512   -1.3467 H   0  0
    8.3555    1.4690    0.9455 H   0  0
    8.6926    1.3516   -0.7986 H   0  0
    7.8203    3.6119   -1.1927 H   0  0
    4.8743   -4.2163    0.3272 H   0  0
    4.9818    2.5244    1.0731 H   0  0
    6.6340    4.5365    1.2592 H   0  0
   10.1636    3.6821   -0.2964 H   0  0
    9.5248    3.7354    1.3644 H   0  0
    8.1162   -0.8762   -0.0197 H   0  0
   10.0515    5.8641    0.5228 H   0  0
    0.5064   -0.3746    0.0145 H   0  0
    1.2360    1.1823   -0.1042 H   0  0
  1 19  1  0  0  0
  1 37  1  0  0  0
  2  8  1  0  0  0
  2 16  1  0  0  0
  2 31  1  0  0  0
 11  3  1  0  0  0
  3 17  1  0  0  0
  3 20  1  0  0  0
  4 18  1  0  0  0
  4 20  2  0  0  0
  5 16  2  0  0  0
  5 21  1  0  0  0
  6 17  1  0  0  0
  6 21  2  0  0  0
  7 21  1  0  0  0
  7 38  1  0  0  0
  7 39  1  0  0  0
  8  9  1  0  0  0
  8 10  1  0  0  0
  8 22  1  0  0  0
  9 10  1  0  0  0
  9 23  1  0  0  0
  9 24  1  0  0  0
 10 25  1  0  0  0
 10 26  1  0  0  0
 11 12  1  0  0  0
 11 14  1  0  0  0
 11 27  1  0  0  0
 12 13  1  0  0  0
 12 28  1  0  0  0
 12 29  1  0  0  0
 13 15  1  0  0  0
 13 19  1  0  0  0
 13 30  1  0  0  0
 14 15  2  0  0  0
 14 32  1  0  0  0
 15 33  1  0  0  0
 16 18  1  0  0  0
 17 18  2  0  0  0
 19 34  1  0  0  0
 19 35  1  0  0  0
 20 36  1  0  0  0
M  END
> <PUBCHEM_COMPOUND_CID>
441300

> <Toxicity>
0

> <Data Set>
TestSet

$$$$
162364434
  SciTegic12242523262D

 44 46  0  0  0  0            999 V2000
    3.7320    1.2410    0.0000 S   0  0
    2.7320    1.2410    0.0000 O   0  0
    4.7320    1.2410    0.0000 O   0  0
    2.0000    4.2410    0.0000 O   0  0
    6.6890   -1.4660    0.0000 N   0  0
    3.7320    0.2410    0.0000 N   0  0
    5.8230   -2.9660    0.0000 N   0  0
    8.5010   -4.2710    0.0000 N   0  0
    6.6890   -4.4660    0.0000 N   0  0
    5.8230   -0.9660    0.0000 C   0  0
    4.5980   -0.2590    0.0000 C   0  0
    5.5640   -0.0010    0.0000 C   0  0
    4.8570   -1.2250    0.0000 C   0  0
    6.6890   -2.4660    0.0000 C   0  0
    7.5550   -0.9660    0.0000 C   0  0
    3.7320    2.2410    0.0000 C   0  0
    7.5550   -2.9660    0.0000 C   0  0
    2.8660    2.7410    0.0000 C   0  0
    7.5550   -3.9660    0.0000 C   0  0
    8.5010   -2.6620    0.0000 C   0  0
    2.8660    3.7410    0.0000 C   0  0
    5.8230   -3.9660    0.0000 C   0  0
    9.0850   -3.4660    0.0000 C   0  0
    6.3150   -0.5890    0.0000 H   0  0
    4.1060   -0.6370    0.0000 H   0  0
    6.1630    0.1600    0.0000 H   0  0
    5.4040    0.5980    0.0000 H   0  0
    4.2580   -1.3860    0.0000 H   0  0
    5.0170   -1.8240    0.0000 H   0  0
    3.1950   -0.0690    0.0000 H   0  0
    7.8650   -1.5040    0.0000 H   0  0
    8.0920   -0.6560    0.0000 H   0  0
    7.2450   -0.4300    0.0000 H   0  0
    4.3430    2.1330    0.0000 H   0  0
    3.9440    2.8230    0.0000 H   0  0
    2.2550    2.8480    0.0000 H   0  0
    2.6540    2.1580    0.0000 H   0  0
    8.6940   -2.0720    0.0000 H   0  0
    3.4770    3.6330    0.0000 H   0  0
    3.0780    4.3230    0.0000 H   0  0
    5.2860   -4.2760    0.0000 H   0  0
    8.6940   -4.8610    0.0000 H   0  0
    9.7050   -3.4660    0.0000 H   0  0
    2.0000    4.8610    0.0000 H   0  0
  1  2  2  0
  1  3  2  0
  1  6  1  0
  1 16  1  0
  4 21  1  0
  4 44  1  0
  5 10  1  0
  5 14  1  0
  5 15  1  0
  6 11  1  0
  6 30  1  0
  7 14  1  0
  7 22  2  0
  8 19  1  0
  8 23  1  0
  8 42  1  0
  9 19  2  0
  9 22  1  0
 10 12  1  0
 10 13  1  0
 10 24  1  0
 11 12  1  0
 11 13  1  0
 11 25  1  0
 12 26  1  0
 12 27  1  0
 13 28  1  0
 13 29  1  0
 14 17  2  0
 15 31  1  0
 15 32  1  0
 15 33  1  0
 16 18  1  0
 16 34  1  0
 16 35  1  0
 17 19  1  0
 17 20  1  0
 18 21  1  0
 18 36  1  0
 18 37  1  0
 20 23  2  0
 20 38  1  0
 21 39  1  0
 21 40  1  0
 22 41  1  0
 23 43  1  0
M  END
> <Name>
162364434

> <PUBCHEM_COMPOUND_CID>
162364434

> <Toxicity>
1

> <Data Set>
TrainingSet

$$$$
1983
  SciTegic12242523262D

 20 20  0  0  0  0            999 V2000
    2.8660   -2.5950    0.0000 O   0  0
    4.5980    1.4050    0.0000 O   0  0
    2.8660    1.4050    0.0000 N   0  0
    2.8660    0.4050    0.0000 C   0  0
    3.7320   -0.0950    0.0000 C   0  0
    2.0000   -0.0950    0.0000 C   0  0
    3.7320   -1.0950    0.0000 C   0  0
    2.0000   -1.0950    0.0000 C   0  0
    2.8660   -1.5950    0.0000 C   0  0
    3.7320    1.9050    0.0000 C   0  0
    3.7320    2.9050    0.0000 C   0  0
    4.2690    0.2150    0.0000 H   0  0
    1.4630    0.2150    0.0000 H   0  0
    2.3290    1.7150    0.0000 H   0  0
    4.2690   -1.4050    0.0000 H   0  0
    1.4630   -1.4050    0.0000 H   0  0
    4.3520    2.9050    0.0000 H   0  0
    3.7320    3.5250    0.0000 H   0  0
    3.1120    2.9050    0.0000 H   0  0
    2.3290   -2.9050    0.0000 H   0  0
  1  9  1  0
  1 20  1  0
  2 10  2  0
  3  4  1  0
  3 10  1  0
  3 14  1  0
  4  5  2  0
  4  6  1  0
  5  7  1  0
  5 12  1  0
  6  8  2  0
  6 13  1  0
  7  9  2  0
  7 15  1  0
  8  9  1  0
  8 16  1  0
 10 11  1  0
 11 17  1  0
 11 18  1  0
 11 19  1  0
M  END
> <Name>
1983

> <PUBCHEM_COMPOUND_CID>
1983

> <Toxicity>
0

> <Data Set>
TrainingSet

$$$$
1986
  SciTegic12242523262D

 19 19  0  0  0  0            999 V2000
    7.2140    0.3480    0.0000 S   0  0
    5.4540    0.6270    0.0000 S   0  0
    7.5230   -0.6030    0.0000 O   0  0
    6.9050    1.2990    0.0000 O   0  0
    3.1590   -1.2990    0.0000 O   0  0
    3.6940    0.3480    0.0000 N   0  0
    5.9540   -0.9120    0.0000 N   0  0
    8.1650    0.6570    0.0000 N   0  0
    4.9540   -0.9120    0.0000 N   0  0
    6.2630    0.0390    0.0000 C   0  0
    4.6450    0.0390    0.0000 C   0  0
    2.9510   -0.3210    0.0000 C   0  0
    2.0000   -0.0120    0.0000 C   0  0
    3.5650    0.9550    0.0000 H   0  0
    8.6260    0.2420    0.0000 H   0  0
    8.2940    1.2640    0.0000 H   0  0
    2.1920    0.5780    0.0000 H   0  0
    1.4100    0.1800    0.0000 H   0  0
    1.8080   -0.6020    0.0000 H   0  0
  1  3  2  0
  1  4  2  0
  1  8  1  0
  1 10  1  0
  2 10  1  0
  2 11  1  0
  5 12  2  0
  6 11  1  0
  6 12  1  0
  6 14  1  0
  7  9  1  0
  7 10  2  0
  8 15  1  0
  8 16  1  0
  9 11  2  0
 12 13  1  0
 13 17  1  0
 13 18  1  0
 13 19  1  0
M  END
> <Name>
1986

> <PUBCHEM_COMPOUND_CID>
1986

> <Toxicity>
0

> <Data Set>
TrainingSet

$$$$
5284513
  SciTegic12242523262D

 50 50  0  0  0  0            999 V2000
    3.7320   -5.3100    0.0000 O   0  0
    8.0620    5.1900    0.0000 O   0  0
    6.3300    5.1900    0.0000 O   0  0
    2.8660   -2.8100    0.0000 C   0  0
    3.7320   -2.3100    0.0000 C   0  0
    2.8660   -3.8100    0.0000 C   0  0
    4.5980   -2.8100    0.0000 C   0  0
    3.7320   -4.3100    0.0000 C   0  0
    4.5980   -3.8100    0.0000 C   0  0
    2.0000   -2.3100    0.0000 C   0  0
    3.7320   -1.3100    0.0000 C   0  0
    2.0000   -4.3100    0.0000 C   0  0
    5.4640   -2.3100    0.0000 C   0  0
    4.5980   -0.8100    0.0000 C   0  0
    4.5980    0.1900    0.0000 C   0  0
    4.5980   -5.8100    0.0000 C   0  0
    3.7320    0.6900    0.0000 C   0  0
    5.4640    0.6900    0.0000 C   0  0
    5.4640    1.6900    0.0000 C   0  0
    6.3300    2.1900    0.0000 C   0  0
    6.3300    3.1900    0.0000 C   0  0
    5.4640    3.6900    0.0000 C   0  0
    7.1960    3.6900    0.0000 C   0  0
    7.1960    4.6900    0.0000 C   0  0
    5.1350   -4.1200    0.0000 H   0  0
    2.3100   -1.7730    0.0000 H   0  0
    1.4630   -2.0000    0.0000 H   0  0
    1.6900   -2.8470    0.0000 H   0  0
    3.1950   -1.0000    0.0000 H   0  0
    1.6900   -3.7730    0.0000 H   0  0
    1.4630   -4.6200    0.0000 H   0  0
    2.3100   -4.8470    0.0000 H   0  0
    5.7740   -2.8470    0.0000 H   0  0
    6.0010   -2.0000    0.0000 H   0  0
    5.1540   -1.7730    0.0000 H   0  0
    5.1350   -1.1200    0.0000 H   0  0
    4.2880   -6.3470    0.0000 H   0  0
    5.1350   -6.1200    0.0000 H   0  0
    4.9080   -5.2730    0.0000 H   0  0
    4.0420    1.2270    0.0000 H   0  0
    3.1950    1.0000    0.0000 H   0  0
    3.4220    0.1530    0.0000 H   0  0
    6.0010    0.3800    0.0000 H   0  0
    4.9270    2.0000    0.0000 H   0  0
    6.8670    1.8800    0.0000 H   0  0
    5.7740    4.2270    0.0000 H   0  0
    4.9270    4.0000    0.0000 H   0  0
    5.1540    3.1530    0.0000 H   0  0
    7.7330    3.3800    0.0000 H   0  0
    8.0620    5.8100    0.0000 H   0  0
  1  8  1  0
  1 16  1  0
  2 24  1  0
  2 50  1  0
  3 24  2  0
  4  5  1  0
  4  6  2  0
  4 10  1  0
  5  7  2  0
  5 11  1  0
  6  8  1  0
  6 12  1  0
  7  9  1  0
  7 13  1  0
  8  9  2  0
  9 25  1  0
 10 26  1  0
 10 27  1  0
 10 28  1  0
 11 14  2  0
 11 29  1  0
 12 30  1  0
 12 31  1  0
 12 32  1  0
 13 33  1  0
 13 34  1  0
 13 35  1  0
 14 15  1  0
 14 36  1  0
 15 17  1  0
 15 18  2  0
 16 37  1  0
 16 38  1  0
 16 39  1  0
 17 40  1  0
 17 41  1  0
 17 42  1  0
 18 19  1  0
 18 43  1  0
 19 20  2  0
 19 44  1  0
 20 21  1  0
 20 45  1  0
 21 22  1  0
 21 23  2  0
 22 46  1  0
 22 47  1  0
 22 48  1  0
 23 24  1  0
 23 49  1  0
M  END
> <Name>
5284513

> <PUBCHEM_COMPOUND_CID>
5284513

> <Toxicity>
1

> <Data Set>
TestSet

$$$$
135398513
  SciTegic12242523262D

 27 28  0  0  0  0            999 V2000
    7.3700    0.8630    0.0000 O   0  0
    4.2690   -3.0980    0.0000 O   0  0
    8.9700    2.9700    0.0000 O   0  0
    6.0810   -0.2940    0.0000 N   0  0
    6.0810   -1.9030    0.0000 N   0  0
    4.2690   -0.0980    0.0000 N   0  0
    3.4030   -1.5980    0.0000 N   0  0
    2.5370   -0.0980    0.0000 N   0  0
    5.1350   -0.5980    0.0000 C   0  0
    6.3920    0.6570    0.0000 C   0  0
    5.1350   -1.5980    0.0000 C   0  0
    6.6650   -1.0980    0.0000 C   0  0
    4.2690   -2.0980    0.0000 C   0  0
    7.6810    1.8140    0.0000 C   0  0
    3.4030   -0.5980    0.0000 C   0  0
    8.6600    2.0200    0.0000 C   0  0
    6.3710    1.2770    0.0000 H   0  0
    5.7780    0.7440    0.0000 H   0  0
    7.2850   -1.0980    0.0000 H   0  0
    7.6600    2.4330    0.0000 H   0  0
    7.0670    1.9010    0.0000 H   0  0
    2.8660   -1.9080    0.0000 H   0  0
    8.6800    1.4000    0.0000 H   0  0
    9.2730    1.9330    0.0000 H   0  0
    2.5370    0.5220    0.0000 H   0  0
    2.0000   -0.4080    0.0000 H   0  0
    9.5770    3.0980    0.0000 H   0  0
  1 10  1  0
  1 14  1  0
  2 13  2  0
  3 16  1  0
  3 27  1  0
  4  9  1  0
  4 10  1  0
  4 12  1  0
  5 11  1  0
  5 12  2  0
  6  9  1  0
  6 15  2  0
  7 13  1  0
  7 15  1  0
  7 22  1  0
  8 15  1  0
  8 25  1  0
  8 26  1  0
  9 11  2  0
 10 17  1  0
 10 18  1  0
 11 13  1  0
 12 19  1  0
 14 16  1  0
 14 20  1  0
 14 21  1  0
 16 23  1  0
 16 24  1  0
M  END
> <Name>
135398513

> <PUBCHEM_COMPOUND_CID>
135398513

> <Toxicity>
0

> <Data Set>
TestSet

$$$$
60172
  SciTegic12242523262D

 30 31  0  0  0  0            999 V2000
    7.5670   -2.6500    0.0000 P   0  0
    6.2780   -1.4930    0.0000 O   0  0
    7.8780   -3.6010    0.0000 O   0  0
    8.5180   -2.3400    0.0000 O   0  0
    6.6170   -2.9610    0.0000 O   0  0
    4.6780    0.6140    0.0000 N   0  0
    4.6780    2.2230    0.0000 N   0  0
    2.8660    0.4190    0.0000 N   0  0
    2.0000    1.9190    0.0000 N   0  0
    2.8660    3.4190    0.0000 N   0  0
    4.9890   -0.3370    0.0000 C   0  0
    5.9670   -0.5430    0.0000 C   0  0
    3.7320    0.9190    0.0000 C   0  0
    3.7320    1.9190    0.0000 C   0  0
    5.2620    1.4190    0.0000 C   0  0
    7.2570   -1.7000    0.0000 C   0  0
    2.8660    2.4190    0.0000 C   0  0
    2.0000    0.9190    0.0000 C   0  0
    4.3750   -0.4240    0.0000 H   0  0
    4.9680   -0.9560    0.0000 H   0  0
    6.5810   -0.4560    0.0000 H   0  0
    5.9880    0.0770    0.0000 H   0  0
    5.8820    1.4190    0.0000 H   0  0
    7.8700   -1.6120    0.0000 H   0  0
    7.2770   -1.0800    0.0000 H   0  0
    1.4630    0.6090    0.0000 H   0  0
    2.3290    3.7290    0.0000 H   0  0
    3.4030    3.7290    0.0000 H   0  0
    8.4850   -3.7290    0.0000 H   0  0
    8.6460   -1.7330    0.0000 H   0  0
  1  3  1  0
  1  4  1  0
  1  5  2  0
  1 16  1  0
  2 12  1  0
  2 16  1  0
  3 29  1  0
  4 30  1  0
  6 11  1  0
  6 13  1  0
  6 15  1  0
  7 14  1  0
  7 15  2  0
  8 13  1  0
  8 18  2  0
  9 17  2  0
  9 18  1  0
 10 17  1  0
 10 27  1  0
 10 28  1  0
 11 12  1  0
 11 19  1  0
 11 20  1  0
 12 21  1  0
 12 22  1  0
 13 14  2  0
 14 17  1  0
 15 23  1  0
 16 24  1  0
 16 25  1  0
 18 26  1  0
M  END
> <Name>
60172

> <PUBCHEM_COMPOUND_CID>
60172

> <Toxicity>
1

> <Data Set>
TrainingSet

$$$$
60961
  SciTegic12242523262D

 32 34  0  0  1  0            999 V2000
    4.4030    0.8920    0.0000 O   0  0
    6.7480   -0.2000    0.0000 O   0  0
    6.7520    1.9760    0.0000 O   0  0
    5.3550    3.3930    0.0000 O   0  0
    4.6780   -0.8690    0.0000 N   0  0
    4.6780   -2.4780    0.0000 N   0  0
    2.8660   -0.6730    0.0000 N   0  0
    2.0000   -2.1730    0.0000 N   0  0
    2.8660   -3.6730    0.0000 N   0  0
    5.9400    0.3890    0.0000 C   0  0  1  0  0  0
    4.9890    0.0820    0.0000 C   0  0  1  0  0  0
    5.9420    1.3890    0.0000 C   0  0  1  0  0  0
    4.9920    1.7000    0.0000 C   0  0  1  0  0  0
    4.6840    2.6520    0.0000 C   0  0
    3.7320   -1.1730    0.0000 C   0  0
    5.2620   -1.6730    0.0000 C   0  0
    3.7320   -2.1730    0.0000 C   0  0
    2.8660   -2.6730    0.0000 C   0  0
    2.0000   -1.1730    0.0000 C   0  0
    6.4930    0.6700    0.0000 H   0  0
    5.4270   -0.3570    0.0000 H   0  0
    6.4940    1.1070    0.0000 H   0  0
    4.3800    1.7980    0.0000 H   0  0
    4.3040    3.1410    0.0000 H   0  0
    4.1360    2.3610    0.0000 H   0  0
    7.3150    0.0510    0.0000 H   0  0
    7.3180    1.7220    0.0000 H   0  0
    5.8820   -1.6730    0.0000 H   0  0
    5.1640    3.9830    0.0000 H   0  0
    1.4630   -0.8630    0.0000 H   0  0
    2.3290   -3.9830    0.0000 H   0  0
    3.4030   -3.9830    0.0000 H   0  0
  1 11  1  0
  1 13  1  0
 10  2  1  1
  2 26  1  0
 12  3  1  1
  3 27  1  0
  4 14  1  0
  4 29  1  0
 11  5  1  6
  5 15  1  0
  5 16  1  0
  6 16  2  0
  6 17  1  0
  7 15  1  0
  7 19  2  0
  8 18  2  0
  8 19  1  0
  9 18  1  0
  9 31  1  0
  9 32  1  0
 10 11  1  0
 10 12  1  0
 10 20  1  6
 11 21  1  1
 12 13  1  0
 12 22  1  6
 13 14  1  6
 13 23  1  1
 14 24  1  0
 14 25  1  0
 15 17  2  0
 16 28  1  0
 17 18  1  0
 19 30  1  0
M  END
> <Name>
60961

> <PUBCHEM_COMPOUND_CID>
60961

> <Toxicity>
0

> <Data Set>
TestSet

$$$$
2082
  SciTegic12242523262D

 33 34  0  0  0  0            999 V2000
    4.5980    1.1690    0.0000 S   0  0
   11.2260   -0.6970    0.0000 O   0  0
    9.7260   -1.5630    0.0000 O   0  0
    8.1420    0.9740    0.0000 N   0  0
    8.1420   -0.6360    0.0000 N   0  0
    9.7260    0.1690    0.0000 N   0  0
    7.1960    0.6690    0.0000 C   0  0
    7.1960   -0.3310    0.0000 C   0  0
    5.4640    0.6690    0.0000 C   0  0
    6.3300    1.1690    0.0000 C   0  0
    6.3300   -0.8310    0.0000 C   0  0
    8.7260    0.1690    0.0000 C   0  0
    3.7320    0.6690    0.0000 C   0  0
    5.4640   -0.3310    0.0000 C   0  0
    2.8660    1.1690    0.0000 C   0  0
    2.0000    0.6690    0.0000 C   0  0
   10.2260   -0.6970    0.0000 C   0  0
   11.7260   -1.5630    0.0000 C   0  0
    6.3300    1.7890    0.0000 H   0  0
    8.3350    1.5630    0.0000 H   0  0
    6.3300   -1.4510    0.0000 H   0  0
    3.3340    0.1940    0.0000 H   0  0
    4.1310    0.1940    0.0000 H   0  0
    4.9270   -0.6410    0.0000 H   0  0
    3.2650    1.6440    0.0000 H   0  0
    2.4680    1.6440    0.0000 H   0  0
    1.6900    1.2060    0.0000 H   0  0
    1.4630    0.3590    0.0000 H   0  0
    2.3100    0.1320    0.0000 H   0  0
   10.0360    0.7060    0.0000 H   0  0
   11.1890   -1.8730    0.0000 H   0  0
   12.0360   -2.1000    0.0000 H   0  0
   12.2630   -1.2530    0.0000 H   0  0
  1  9  1  0
  1 13  1  0
  2 17  1  0
  2 18  1  0
  3 17  2  0
  4  7  1  0
  4 12  1  0
  4 20  1  0
  5  8  1  0
  5 12  2  0
  6 12  1  0
  6 17  1  0
  6 30  1  0
  7  8  1  0
  7 10  2  0
  8 11  2  0
  9 10  1  0
  9 14  2  0
 10 19  1  0
 11 14  1  0
 11 21  1  0
 13 15  1  0
 13 22  1  0
 13 23  1  0
 14 24  1  0
 15 16  1  0
 15 25  1  0
 15 26  1  0
 16 27  1  0
 16 28  1  0
 16 29  1  0
 18 31  1  0
 18 32  1  0
 18 33  1  0
M  END
> <Name>
2082

> <PUBCHEM_COMPOUND_CID>
2082

> <Toxicity>
0

> <Data Set>
TrainingSet

$$$$
2083
  SciTegic12242523262D

 38 38  0  0  1  0            999 V2000
    4.2690    1.2220    0.0000 O   0  0
    5.1350   -3.2780    0.0000 O   0  0
    2.5370   -1.7780    0.0000 O   0  0
    6.0010    2.2220    0.0000 N   0  0
    6.8670    2.7220    0.0000 C   0  0
    6.0010    1.2220    0.0000 C   0  0
    5.1350    0.7220    0.0000 C   0  0
    7.7330    3.2220    0.0000 C   0  0
    6.3670    3.5880    0.0000 C   0  0
    7.3670    1.8560    0.0000 C   0  0
    5.1350   -0.2780    0.0000 C   0  0
    4.2690   -0.7780    0.0000 C   0  0
    6.0010   -0.7780    0.0000 C   0  0
    4.2690   -1.7780    0.0000 C   0  0
    5.1350   -2.2780    0.0000 C   0  0
    6.0010   -1.7780    0.0000 C   0  0
    3.4030   -2.2780    0.0000 C   0  0
    6.2130    0.6390    0.0000 H   0  0
    6.6120    1.3300    0.0000 H   0  0
    5.4640    2.5320    0.0000 H   0  0
    5.1350    1.5720    0.0000 H   0  0
    8.0430    2.6850    0.0000 H   0  0
    8.2700    3.5320    0.0000 H   0  0
    7.4230    3.7590    0.0000 H   0  0
    6.9040    3.8980    0.0000 H   0  0
    6.0570    4.1250    0.0000 H   0  0
    5.8300    3.2780    0.0000 H   0  0
    6.8300    1.5460    0.0000 H   0  0
    7.6770    1.3190    0.0000 H   0  0
    7.9040    2.1660    0.0000 H   0  0
    3.7320   -0.4680    0.0000 H   0  0
    6.5380   -0.4680    0.0000 H   0  0
    4.2690    1.8420    0.0000 H   0  0
    6.5380   -2.0880    0.0000 H   0  0
    3.0040   -2.7530    0.0000 H   0  0
    3.8020   -2.7530    0.0000 H   0  0
    5.6720   -3.5880    0.0000 H   0  0
    2.0000   -2.0880    0.0000 H   0  0
  1  7  1  0
  1 33  1  0
  2 15  1  0
  2 37  1  0
  3 17  1  0
  3 38  1  0
  4  5  1  0
  4  6  1  0
  4 20  1  0
  5  8  1  0
  5  9  1  0
  5 10  1  0
  6  7  1  0
  6 18  1  0
  6 19  1  0
  7 11  1  0
  7 21  1  0
  8 22  1  0
  8 23  1  0
  8 24  1  0
  9 25  1  0
  9 26  1  0
  9 27  1  0
 10 28  1  0
 10 29  1  0
 10 30  1  0
 11 12  2  0
 11 13  1  0
 12 14  1  0
 12 31  1  0
 13 16  2  0
 13 32  1  0
 14 15  2  0
 14 17  1  0
 15 16  1  0
 16 34  1  0
 17 35  1  0
 17 36  1  0
M  END
> <Name>
2083

> <PUBCHEM_COMPOUND_CID>
2083

> <Toxicity>
0

> <Data Set>
TestSet

$$$$
51263
  SciTegic12242523262D

 62 64  0  0  0  0            999 V2000
    3.1260    3.0150    0.0000 O   0  0
    3.6260    3.8810    0.0000 O   0  0
    2.0000   -2.6300    0.0000 O   0  0
    4.6260    0.1490    0.0000 N   0  0
    5.1260    3.0150    0.0000 N   0  0
    3.7600   -2.3510    0.0000 N   0  0
    4.5690   -2.9390    0.0000 N   0  0
    3.2600   -3.8900    0.0000 N   0  0
    4.2600   -3.8900    0.0000 N   0  0
    4.6260    2.1490    0.0000 C   0  0
    3.7600    1.6490    0.0000 C   0  0
    5.4920    1.6490    0.0000 C   0  0
    3.7600    0.6490    0.0000 C   0  0
    5.4920    0.6490    0.0000 C   0  0
    4.1260    3.0150    0.0000 C   0  0
    4.6260   -0.8510    0.0000 C   0  0
    6.1260    3.0150    0.0000 C   0  0
    4.6260    3.8810    0.0000 C   0  0
    3.7600   -1.3510    0.0000 C   0  0
    5.1260    4.7470    0.0000 C   0  0
    6.6260    2.1490    0.0000 C   0  0
    6.6260    3.8810    0.0000 C   0  0
    2.6260    3.8810    0.0000 C   0  0
    4.6260    5.6130    0.0000 C   0  0
    7.6260    2.1490    0.0000 C   0  0
    7.6260    3.8810    0.0000 C   0  0
    2.9510   -2.9390    0.0000 C   0  0
    8.1260    3.0150    0.0000 C   0  0
    2.6720   -4.6990    0.0000 C   0  0
    3.0790   -5.6130    0.0000 C   0  0
    3.5480    2.2310    0.0000 H   0  0
    3.1500    1.5410    0.0000 H   0  0
    6.1030    1.5410    0.0000 H   0  0
    5.7040    2.2310    0.0000 H   0  0
    3.1500    0.7560    0.0000 H   0  0
    3.5480    0.0660    0.0000 H   0  0
    5.7040    0.0660    0.0000 H   0  0
    6.1030    0.7560    0.0000 H   0  0
    4.7090    3.2270    0.0000 H   0  0
    4.0180    3.6250    0.0000 H   0  0
    4.8380   -1.4340    0.0000 H   0  0
    5.2370   -0.7440    0.0000 H   0  0
    3.5480   -0.7690    0.0000 H   0  0
    3.1500   -1.4590    0.0000 H   0  0
    5.6010    4.3480    0.0000 H   0  0
    5.6010    5.1450    0.0000 H   0  0
    6.3160    1.6120    0.0000 H   0  0
    6.3160    4.4180    0.0000 H   0  0
    3.1630    4.1910    0.0000 H   0  0
    2.3160    4.4180    0.0000 H   0  0
    2.0890    3.5710    0.0000 H   0  0
    5.1630    5.9230    0.0000 H   0  0
    4.3160    6.1500    0.0000 H   0  0
    4.0890    5.3030    0.0000 H   0  0
    7.9360    1.6120    0.0000 H   0  0
    7.9360    4.4180    0.0000 H   0  0
    8.7460    3.0150    0.0000 H   0  0
    2.2420   -4.2530    0.0000 H   0  0
    2.1580   -5.0460    0.0000 H   0  0
    2.5130   -5.8650    0.0000 H   0  0
    3.3310   -6.1790    0.0000 H   0  0
    3.6450   -5.3610    0.0000 H   0  0
  1 15  1  0
  1 23  1  0
  2 18  2  0
  3 27  2  0
  4 13  1  0
  4 14  1  0
  4 16  1  0
  5 10  1  0
  5 17  1  0
  5 18  1  0
  6  7  1  0
  6 19  1  0
  6 27  1  0
  7  9  2  0
  8  9  1  0
  8 27  1  0
  8 29  1  0
 10 11  1  0
 10 12  1  0
 10 15  1  0
 11 13  1  0
 11 31  1  0
 11 32  1  0
 12 14  1  0
 12 33  1  0
 12 34  1  0
 13 35  1  0
 13 36  1  0
 14 37  1  0
 14 38  1  0
 15 39  1  0
 15 40  1  0
 16 19  1  0
 16 41  1  0
 16 42  1  0
 17 21  2  0
 17 22  1  0
 18 20  1  0
 19 43  1  0
 19 44  1  0
 20 24  1  0
 20 45  1  0
 20 46  1  0
 21 25  1  0
 21 47  1  0
 22 26  2  0
 22 48  1  0
 23 49  1  0
 23 50  1  0
 23 51  1  0
 24 52  1  0
 24 53  1  0
 24 54  1  0
 25 28  2  0
 25 55  1  0
 26 28  1  0
 26 56  1  0
 28 57  1  0
 29 30  1  0
 29 58  1  0
 29 59  1  0
 30 60  1  0
 30 61  1  0
 30 62  1  0
M  END
> <Name>
51263

> <PUBCHEM_COMPOUND_CID>
51263

> <Toxicity>
0

> <Data Set>
TestSet

$$$$
2092
  SciTegic12242523262D

 55 57  0  0  1  0            999 V2000
   13.4310    2.0480    0.0000 O   0  0
   12.4600   -0.4460    0.0000 O   0  0
    2.8680   -0.9700    0.0000 O   0  0
    2.8680    1.0780    0.0000 O   0  0
   11.5940    1.0540    0.0000 N   0  0
    8.1300    1.0540    0.0000 N   0  0
    6.3980    1.0540    0.0000 N   0  0
    7.2640   -0.4460    0.0000 N   0  0
    6.3980   -1.9460    0.0000 N   0  0
   13.3260    1.0540    0.0000 C   0  0
   14.2400    0.6470    0.0000 C   0  0
   14.9090    1.3900    0.0000 C   0  0
   14.4090    2.2560    0.0000 C   0  0
   12.4600    0.5540    0.0000 C   0  0
   10.7280    0.5540    0.0000 C   0  0
    9.8620    1.0540    0.0000 C   0  0
    8.9960    0.5540    0.0000 C   0  0
    7.2640    0.5540    0.0000 C   0  0
    8.1300    2.0540    0.0000 C   0  0
    5.5320   -0.4460    0.0000 C   0  0
    5.5320    0.5540    0.0000 C   0  0
    6.3980   -0.9460    0.0000 C   0  0
    4.6380   -0.9810    0.0000 C   0  0
    4.6380    1.0880    0.0000 C   0  0
    3.7320   -0.4670    0.0000 C   0  0
    3.7320    0.5750    0.0000 C   0  0
    2.0000   -0.4740    0.0000 C   0  0
    2.8720    2.0780    0.0000 C   0  0
   12.8060    1.3920    0.0000 H   0  0
   13.9300    0.1100    0.0000 H   0  0
   14.7410    0.2830    0.0000 H   0  0
   15.3240    0.9290    0.0000 H   0  0
   15.4100    1.7550    0.0000 H   0  0
   14.9750    2.5080    0.0000 H   0  0
   14.2170    2.8460    0.0000 H   0  0
   10.3300    0.0790    0.0000 H   0  0
   11.1270    0.0790    0.0000 H   0  0
   10.2610    1.5290    0.0000 H   0  0
    9.4640    1.5290    0.0000 H   0  0
   11.5940    1.6740    0.0000 H   0  0
    8.5980    0.0790    0.0000 H   0  0
    9.3950    0.0790    0.0000 H   0  0
    8.7500    2.0540    0.0000 H   0  0
    8.1300    2.6740    0.0000 H   0  0
    7.5100    2.0540    0.0000 H   0  0
    4.6450   -1.6010    0.0000 H   0  0
    4.6450    1.7080    0.0000 H   0  0
    6.9350   -2.2560    0.0000 H   0  0
    5.8610   -2.2560    0.0000 H   0  0
    2.3080    0.0640    0.0000 H   0  0
    1.4620   -0.1660    0.0000 H   0  0
    1.6920   -1.0120    0.0000 H   0  0
    3.4920    2.0760    0.0000 H   0  0
    2.8740    2.6980    0.0000 H   0  0
    2.2520    2.0800    0.0000 H   0  0
  1 10  1  0
  1 13  1  0
  2 14  2  0
  3 25  1  0
  3 27  1  0
  4 26  1  0
  4 28  1  0
  5 14  1  0
  5 15  1  0
  5 40  1  0
  6 17  1  0
  6 18  1  0
  6 19  1  0
  7 18  2  0
  7 21  1  0
  8 18  1  0
  8 22  2  0
  9 22  1  0
  9 48  1  0
  9 49  1  0
 10 11  1  0
 10 14  1  0
 10 29  1  0
 11 12  1  0
 11 30  1  0
 11 31  1  0
 12 13  1  0
 12 32  1  0
 12 33  1  0
 13 34  1  0
 13 35  1  0
 15 16  1  0
 15 36  1  0
 15 37  1  0
 16 17  1  0
 16 38  1  0
 16 39  1  0
 17 41  1  0
 17 42  1  0
 19 43  1  0
 19 44  1  0
 19 45  1  0
 20 21  2  0
 20 22  1  0
 20 23  1  0
 21 24  1  0
 23 25  2  0
 23 46  1  0
 24 26  2  0
 24 47  1  0
 25 26  1  0
 27 50  1  0
 27 51  1  0
 27 52  1  0
 28 53  1  0
 28 54  1  0
 28 55  1  0
M  END
> <Name>
2092

> <PUBCHEM_COMPOUND_CID>
2092

> <Toxicity>
1

> <Data Set>
TrainingSet

$$$$
135401907
  SciTegic12242523262D

 14 15  0  0  0  0            999 V2000
    3.4030    1.6970    0.0000 O   0  0
    5.2150   -1.1080    0.0000 N   0  0
    2.5370    0.1970    0.0000 N   0  0
    3.4030   -1.3030    0.0000 N   0  0
    5.7990   -0.3030    0.0000 N   0  0
    4.2690    0.1970    0.0000 C   0  0
    4.2690   -0.8030    0.0000 C   0  0
    3.4030    0.6970    0.0000 C   0  0
    5.2150    0.5020    0.0000 C   0  0
    2.5370   -0.8030    0.0000 C   0  0
    5.4080    1.0910    0.0000 H   0  0
    5.4080   -1.6970    0.0000 H   0  0
    2.0000    0.5070    0.0000 H   0  0
    2.0000   -1.1130    0.0000 H   0  0
  1  8  2  0
  2  5  1  0
  2  7  1  0
  2 12  1  0
  3  8  1  0
  3 10  1  0
  3 13  1  0
  4  7  1  0
  4 10  2  0
  5  9  2  0
  6  7  2  0
  6  8  1  0
  6  9  1  0
  9 11  1  0
 10 14  1  0
M  END
> <Name>
135401907

> <PUBCHEM_COMPOUND_CID>
135401907

> <Toxicity>
0

> <Data Set>
TrainingSet

$$$$
2123
  SciTegic12242523262D

 33 33  0  0  0  0            999 V2000
    6.3300    1.2500    0.0000 N   0  0
    2.8660    1.2500    0.0000 N   0  0
    4.5980   -1.7500    0.0000 N   0  0
    4.5980    1.2500    0.0000 N   0  0
    5.4640   -0.2500    0.0000 N   0  0
    3.7320   -0.2500    0.0000 N   0  0
    5.4640    0.7500    0.0000 C   0  0
    3.7320    0.7500    0.0000 C   0  0
    4.5980   -0.7500    0.0000 C   0  0
    7.1960    0.7500    0.0000 C   0  0
    6.3300    2.2500    0.0000 C   0  0
    2.8660    2.2500    0.0000 C   0  0
    2.0000    0.7500    0.0000 C   0  0
    5.4640   -2.2500    0.0000 C   0  0
    3.7320   -2.2500    0.0000 C   0  0
    6.8860    0.2130    0.0000 H   0  0
    7.7330    0.4400    0.0000 H   0  0
    7.5060    1.2870    0.0000 H   0  0
    6.9500    2.2500    0.0000 H   0  0
    6.3300    2.8700    0.0000 H   0  0
    5.7100    2.2500    0.0000 H   0  0
    3.4860    2.2500    0.0000 H   0  0
    2.8660    2.8700    0.0000 H   0  0
    2.2460    2.2500    0.0000 H   0  0
    1.6900    1.2870    0.0000 H   0  0
    1.4630    0.4400    0.0000 H   0  0
    2.3100    0.2130    0.0000 H   0  0
    5.1540   -2.7870    0.0000 H   0  0
    6.0010   -2.5600    0.0000 H   0  0
    5.7740   -1.7130    0.0000 H   0  0
    3.4220   -1.7130    0.0000 H   0  0
    3.1950   -2.5600    0.0000 H   0  0
    4.0420   -2.7870    0.0000 H   0  0
  1  7  1  0
  1 10  1  0
  1 11  1  0
  2  8  1  0
  2 12  1  0
  2 13  1  0
  3  9  1  0
  3 14  1  0
  3 15  1  0
  4  7  2  0
  4  8  1  0
  5  7  1  0
  5  9  2  0
  6  8  2  0
  6  9  1  0
 10 16  1  0
 10 17  1  0
 10 18  1  0
 11 19  1  0
 11 20  1  0
 11 21  1  0
 12 22  1  0
 12 23  1  0
 12 24  1  0
 13 25  1  0
 13 26  1  0
 13 27  1  0
 14 28  1  0
 14 29  1  0
 14 30  1  0
 15 31  1  0
 15 32  1  0
 15 33  1  0
M  END
> <Name>
2123

> <PUBCHEM_COMPOUND_CID>
2123

> <Toxicity>
1

> <Data Set>
TrainingSet

$$$$
6918493
  SciTegic12242523262D

 50 52  0  0  1  0            999 V2000
    7.6960    0.6650    0.0000 O   0  0
    5.4640   -0.2010    0.0000 O   0  0
    5.4640    1.7990    0.0000 O   0  0
    7.1960    1.7990    0.0000 O   0  0
    3.7320   -0.2010    0.0000 N   0  0
    4.5980    1.2990    0.0000 N   0  0
    7.1960   -0.2010    0.0000 C   0  0
    6.3300    0.2990    0.0000 C   0  0  1  0  0  0
    8.0620   -0.7010    0.0000 C   0  0
    6.6960   -1.0670    0.0000 C   0  0
    8.9280   -0.2010    0.0000 C   0  0
    5.6960   -1.0670    0.0000 C   0  0
    8.0620   -1.7010    0.0000 C   0  0
    7.1960   -1.9330    0.0000 C   0  0
    6.3300    1.2990    0.0000 C   0  0
    8.6960    0.6650    0.0000 C   0  0
    9.7940   -0.7010    0.0000 C   0  0
    5.1960   -1.9330    0.0000 C   0  0
    8.9280   -2.2010    0.0000 C   0  0
    6.6960   -2.7990    0.0000 C   0  0
    9.7940   -1.7010    0.0000 C   0  0
    5.6960   -2.7990    0.0000 C   0  0
    4.5980    0.2990    0.0000 C   0  0
    2.8660    0.2990    0.0000 C   0  0
    3.7320    1.7990    0.0000 C   0  0
    2.8660    1.2990    0.0000 C   0  0
    2.0000   -0.2010    0.0000 C   0  0
    3.7320    2.7990    0.0000 C   0  0
    5.7930    0.6090    0.0000 H   0  0
    8.9280    0.4190    0.0000 H   0  0
    5.3860   -0.5300    0.0000 H   0  0
    7.5250   -2.0110    0.0000 H   0  0
    7.8160   -1.9330    0.0000 H   0  0
    8.6960    0.0450    0.0000 H   0  0
    9.3160    0.6650    0.0000 H   0  0
    8.6960    1.2850    0.0000 H   0  0
   10.3310   -0.3910    0.0000 H   0  0
    4.5760   -1.9330    0.0000 H   0  0
    8.9280   -2.8210    0.0000 H   0  0
    7.0060   -3.3360    0.0000 H   0  0
   10.3310   -2.0110    0.0000 H   0  0
    5.3860   -3.3360    0.0000 H   0  0
    5.4640    2.4190    0.0000 H   0  0
    2.3290    1.6090    0.0000 H   0  0
    1.6900    0.3360    0.0000 H   0  0
    1.4630   -0.5110    0.0000 H   0  0
    2.3100   -0.7380    0.0000 H   0  0
    4.3520    2.7990    0.0000 H   0  0
    3.7320    3.4190    0.0000 H   0  0
    3.1120    2.7990    0.0000 H   0  0
  1  7  1  0
  1 16  1  0
  2  8  1  0
  2 23  1  0
  3 15  1  0
  3 43  1  0
  4 15  2  0
  5 23  2  0
  5 24  1  0
  6 23  1  0
  6 25  2  0
  7  8  1  0
  7  9  1  0
  7 10  1  0
  8 15  1  6
  8 29  1  1
  9 11  2  0
  9 13  1  0
 10 12  2  0
 10 14  1  0
 11 17  1  0
 11 30  1  0
 12 18  1  0
 12 31  1  0
 13 19  2  0
 13 32  1  0
 14 20  2  0
 14 33  1  0
 16 34  1  0
 16 35  1  0
 16 36  1  0
 17 21  2  0
 17 37  1  0
 18 22  2  0
 18 38  1  0
 19 21  1  0
 19 39  1  0
 20 22  1  0
 20 40  1  0
 21 41  1  0
 22 42  1  0
 24 26  2  0
 24 27  1  0
 25 26  1  0
 25 28  1  0
 26 44  1  0
 27 45  1  0
 27 46  1  0
 27 47  1  0
 28 48  1  0
 28 49  1  0
 28 50  1  0
M  END
> <Name>
6918493

> <PUBCHEM_COMPOUND_CID>
6918493

> <Toxicity>
1

> <Data Set>
TrainingSet

$$$$
37768
  SciTegic12242523262D

 83 85  0  0  1  0            999 V2000
    9.8670    0.0880    0.0000 O   0  0
    6.8670   -1.6450    0.0000 O   0  0
    8.8670   -1.6450    0.0000 O   0  0
    9.8670   -1.6450    0.0000 O   0  0
    5.1350   -1.6450    0.0000 O   0  0
   11.8670    0.0880    0.0000 O   0  0
    6.8670   -3.6450    0.0000 O   0  0
   11.8670   -3.3770    0.0000 O   0  0
    5.1350   -4.6450    0.0000 O   0  0
    3.4030   -3.6450    0.0000 O   0  0
    8.8670    3.5520    0.0000 O   0  0
    8.8670   -3.3770    0.0000 O   0  0
    6.8670    1.8200    0.0000 O   0  0
    8.8670    1.8200    0.0000 N   0  0
    5.8670    0.0880    0.0000 N   0  0
   12.8670   -1.6450    0.0000 N   0  0
    2.5370   -2.1450    0.0000 N   0  0
    5.3670    4.4180    0.0000 N   0  0
    8.8670    0.0880    0.0000 C   0  0  1  0  0  0
    7.3670   -0.7780    0.0000 C   0  0  1  0  0  0
    8.3670    0.9540    0.0000 C   0  0  1  0  0  0
    8.3670   -0.7780    0.0000 C   0  0  2  0  0  0
    6.8670    0.0880    0.0000 C   0  0  2  0  0  0
    7.3670    0.9540    0.0000 C   0  0
   10.3670   -0.7780    0.0000 C   0  0  1  0  0  0
    6.0010   -2.1450    0.0000 C   0  0  1  0  0  0
   11.3670   -0.7780    0.0000 C   0  0  1  0  0  0
   11.8670   -1.6450    0.0000 C   0  0  2  0  0  0
    6.0010   -3.1450    0.0000 C   0  0  1  0  0  0
   11.3670   -2.5110    0.0000 C   0  0  1  0  0  0
    5.1350   -3.6450    0.0000 C   0  0  2  0  0  0
   10.3670   -2.5110    0.0000 C   0  0  1  0  0  0
    4.2690   -3.1450    0.0000 C   0  0  1  0  0  0
    4.2690   -2.1450    0.0000 C   0  0  1  0  0  0
    8.3670    2.6860    0.0000 C   0  0
    9.8670   -3.3770    0.0000 C   0  0
    3.4030   -1.6450    0.0000 C   0  0
    7.3670    2.6860    0.0000 C   0  0  2  0  0  0
    6.8670    3.5520    0.0000 C   0  0
    5.8670    3.5520    0.0000 C   0  0
    9.1770    0.6240    0.0000 H   0  0
    7.6770   -1.3160    0.0000 H   0  0
    8.0570    1.4900    0.0000 H   0  0
    8.9870   -0.7780    0.0000 H   0  0
    6.5570   -0.4490    0.0000 H   0  0
    7.4750    1.5640    0.0000 H   0  0
    6.7840    1.1660    0.0000 H   0  0
    9.7470   -0.7780    0.0000 H   0  0
    6.0010   -1.5250    0.0000 H   0  0
    9.4870    1.8200    0.0000 H   0  0
   11.9870   -0.7780    0.0000 H   0  0
   12.1770   -2.1820    0.0000 H   0  0
    6.0010   -3.7650    0.0000 H   0  0
    5.5570    0.6240    0.0000 H   0  0
    5.5570   -0.4490    0.0000 H   0  0
   11.0570   -3.0480    0.0000 H   0  0
    4.5980   -3.9550    0.0000 H   0  0
    9.7470   -2.5110    0.0000 H   0  0
    8.5570   -2.1820    0.0000 H   0  0
    4.2690   -3.7650    0.0000 H   0  0
    4.2690   -1.5250    0.0000 H   0  0
    9.7590   -3.9870    0.0000 H   0  0
   10.4500   -3.5890    0.0000 H   0  0
    3.8020   -1.1700    0.0000 H   0  0
    3.0040   -1.1700    0.0000 H   0  0
   13.1770   -2.1820    0.0000 H   0  0
   13.1770   -1.1080    0.0000 H   0  0
    7.6770    2.1490    0.0000 H   0  0
   12.4870    0.0880    0.0000 H   0  0
    6.8670   -4.2650    0.0000 H   0  0
   11.5570   -3.9140    0.0000 H   0  0
    4.5980   -4.9550    0.0000 H   0  0
    3.4030   -4.2650    0.0000 H   0  0
    7.4500    3.7640    0.0000 H   0  0
    6.7590    4.1620    0.0000 H   0  0
    2.0000   -1.8350    0.0000 H   0  0
    2.5370   -2.7650    0.0000 H   0  0
    8.5570   -3.9140    0.0000 H   0  0
    6.2470    1.8200    0.0000 H   0  0
    5.2840    3.3400    0.0000 H   0  0
    5.9750    2.9410    0.0000 H   0  0
    4.7470    4.4180    0.0000 H   0  0
    5.6770    4.9550    0.0000 H   0  0
 19  1  1  6
 25  1  1  6
 20  2  1  6
 26  2  1  6
 22  3  1  1
  3 59  1  0
  4 25  1  0
  4 32  1  0
  5 26  1  0
  5 34  1  0
 27  6  1  6
  6 69  1  0
 29  7  1  6
  7 70  1  0
 30  8  1  6
  8 71  1  0
 31  9  1  1
  9 72  1  0
 33 10  1  6
 10 73  1  0
 11 35  2  0
 12 36  1  0
 12 78  1  0
 38 13  1  1
 13 79  1  0
 21 14  1  1
 14 35  1  0
 14 50  1  0
 23 15  1  1
 15 54  1  0
 15 55  1  0
 28 16  1  1
 16 66  1  0
 16 67  1  0
 17 37  1  0
 17 76  1  0
 17 77  1  0
 18 40  1  0
 18 82  1  0
 18 83  1  0
 19 21  1  0
 19 22  1  0
 19 41  1  1
 20 22  1  0
 20 23  1  0
 20 42  1  1
 21 24  1  0
 21 43  1  6
 22 44  1  6
 23 24  1  0
 23 45  1  6
 24 46  1  0
 24 47  1  0
 25 27  1  0
 25 48  1  1
 26 29  1  0
 26 49  1  1
 27 28  1  0
 27 51  1  1
 28 30  1  0
 28 52  1  6
 29 31  1  0
 29 53  1  1
 30 32  1  0
 30 56  1  1
 31 33  1  0
 31 57  1  6
 32 36  1  1
 32 58  1  6
 33 34  1  0
 33 60  1  1
 34 37  1  1
 34 61  1  6
 35 38  1  0
 36 62  1  0
 36 63  1  0
 37 64  1  0
 37 65  1  0
 38 39  1  0
 38 68  1  6
 39 40  1  0
 39 74  1  0
 39 75  1  0
 40 80  1  0
 40 81  1  0
M  END
> <Name>
37768

> <PUBCHEM_COMPOUND_CID>
37768

> <Toxicity>
0

> <Data Set>
TrainingSet

$$$$
564
  SciTegic12242523262D

 22 21  0  0  0  0            999 V2000
    2.5370    0.7500    0.0000 O   0  0
    3.4030   -0.7500    0.0000 O   0  0
    8.5990    0.2500    0.0000 N   0  0
    6.0010    0.7500    0.0000 C   0  0
    5.1350    0.2500    0.0000 C   0  0
    6.8670    0.2500    0.0000 C   0  0
    4.2690    0.7500    0.0000 C   0  0
    7.7330    0.7500    0.0000 C   0  0
    3.4030    0.2500    0.0000 C   0  0
    6.4000    1.2250    0.0000 H   0  0
    5.6020    1.2250    0.0000 H   0  0
    4.7360   -0.2250    0.0000 H   0  0
    5.5340   -0.2250    0.0000 H   0  0
    6.4680   -0.2250    0.0000 H   0  0
    7.2660   -0.2250    0.0000 H   0  0
    4.6680    1.2250    0.0000 H   0  0
    3.8700    1.2250    0.0000 H   0  0
    8.1320    1.2250    0.0000 H   0  0
    7.3350    1.2250    0.0000 H   0  0
    9.1360    0.5600    0.0000 H   0  0
    8.5990   -0.3700    0.0000 H   0  0
    2.0000    0.4400    0.0000 H   0  0
  1  9  1  0
  1 22  1  0
  2  9  2  0
  3  8  1  0
  3 20  1  0
  3 21  1  0
  4  5  1  0
  4  6  1  0
  4 10  1  0
  4 11  1  0
  5  7  1  0
  5 12  1  0
  5 13  1  0
  6  8  1  0
  6 14  1  0
  6 15  1  0
  7  9  1  0
  7 16  1  0
  7 17  1  0
  8 18  1  0
  8 19  1  0
M  END
> <Name>
564

> <PUBCHEM_COMPOUND_CID>
564

> <Toxicity>
1

> <Data Set>
TrainingSet

$$$$
2157
  SciTegic12242523262D

 60 62  0  0  0  0            999 V2000
    8.2820   -1.2130    0.0000 I   0  0
    7.5670    2.1770    0.0000 I   0  0
    4.6780   -2.6970    0.0000 O   0  0
    8.9030    0.6880    0.0000 O   0  0
    4.3210    0.6080    0.0000 O   0  0
   10.5030    2.7950    0.0000 N   0  0
    6.2620   -1.8920    0.0000 C   0  0
    5.2620   -1.8920    0.0000 C   0  0
    4.6780   -1.0870    0.0000 C   0  0
    6.7620   -2.7580    0.0000 C   0  0
    3.7320   -1.3920    0.0000 C   0  0
    3.7320   -2.3920    0.0000 C   0  0
   10.1920    1.8450    0.0000 C   0  0
    6.2620   -3.6240    0.0000 C   0  0
    4.9890   -0.1370    0.0000 C   0  0
   11.4810    3.0020    0.0000 C   0  0
    9.8350    3.5400    0.0000 C   0  0
    9.2140    1.6390    0.0000 C   0  0
    2.8660   -0.8920    0.0000 C   0  0
    5.9670    0.0690    0.0000 C   0  0
    2.8660   -2.8920    0.0000 C   0  0
    6.7620   -4.4900    0.0000 C   0  0
   11.7920    3.9520    0.0000 C   0  0
   10.1460    4.4900    0.0000 C   0  0
    7.9240    0.4820    0.0000 C   0  0
    2.0000   -1.3920    0.0000 C   0  0
    2.0000   -2.3920    0.0000 C   0  0
    6.6350   -0.6750    0.0000 C   0  0
    6.2780    1.0200    0.0000 C   0  0
    7.6140   -0.4690    0.0000 C   0  0
    7.2570    1.2260    0.0000 C   0  0
    6.8440   -1.6800    0.0000 H   0  0
    6.1540   -1.2820    0.0000 H   0  0
    7.2370   -3.1570    0.0000 H   0  0
    7.2370   -2.3600    0.0000 H   0  0
   10.2130    1.2250    0.0000 H   0  0
   10.8060    1.7580    0.0000 H   0  0
    5.7870   -3.2260    0.0000 H   0  0
    5.7870   -4.0230    0.0000 H   0  0
   11.5020    2.3820    0.0000 H   0  0
   12.0950    2.9140    0.0000 H   0  0
    9.2880    3.8320    0.0000 H   0  0
    9.4520    3.0520    0.0000 H   0  0
    9.1930    2.2580    0.0000 H   0  0
    8.6000    1.7260    0.0000 H   0  0
    2.8660   -0.2720    0.0000 H   0  0
    2.8660   -3.5120    0.0000 H   0  0
    6.2250   -4.8000    0.0000 H   0  0
    7.0720   -5.0270    0.0000 H   0  0
    7.2990   -4.1800    0.0000 H   0  0
   12.3810    3.7600    0.0000 H   0  0
   11.9850    4.5410    0.0000 H   0  0
   11.2030    4.1450    0.0000 H   0  0
   10.7350    4.2980    0.0000 H   0  0
   10.3380    5.0800    0.0000 H   0  0
    9.5560    4.6830    0.0000 H   0  0
    1.4630   -1.0820    0.0000 H   0  0
    1.4630   -2.7020    0.0000 H   0  0
    6.4430   -1.2640    0.0000 H   0  0
    5.8640    1.4810    0.0000 H   0  0
  1 30  1  0
  2 31  1  0
  3  8  1  0
  3 12  1  0
  4 18  1  0
  4 25  1  0
  5 15  2  0
  6 13  1  0
  6 16  1  0
  6 17  1  0
  7  8  1  0
  7 10  1  0
  7 32  1  0
  7 33  1  0
  8  9  2  0
  9 11  1  0
  9 15  1  0
 10 14  1  0
 10 34  1  0
 10 35  1  0
 11 12  2  0
 11 19  1  0
 12 21  1  0
 13 18  1  0
 13 36  1  0
 13 37  1  0
 14 22  1  0
 14 38  1  0
 14 39  1  0
 15 20  1  0
 16 23  1  0
 16 40  1  0
 16 41  1  0
 17 24  1  0
 17 42  1  0
 17 43  1  0
 18 44  1  0
 18 45  1  0
 19 26  2  0
 19 46  1  0
 20 28  2  0
 20 29  1  0
 21 27  2  0
 21 47  1  0
 22 48  1  0
 22 49  1  0
 22 50  1  0
 23 51  1  0
 23 52  1  0
 23 53  1  0
 24 54  1  0
 24 55  1  0
 24 56  1  0
 25 30  2  0
 25 31  1  0
 26 27  1  0
 26 57  1  0
 27 58  1  0
 28 30  1  0
 28 59  1  0
 29 31  2  0
 29 60  1  0
M  END
> <Name>
2157

> <PUBCHEM_COMPOUND_CID>
2157

> <Toxicity>
1

> <Data Set>
TestSet

$$$$
2160
  SciTegic12242523262D

 44 46  0  0  0  0            999 V2000
    3.1510   -2.0950    0.0000 N   0  0
    4.3830    3.0950    0.0000 C   0  0
    5.3830    3.0950    0.0000 C   0  0
    4.8830    0.9050    0.0000 C   0  0
    3.7600    2.3140    0.0000 C   0  0
    6.0060    2.3140    0.0000 C   0  0
    3.9820    1.3390    0.0000 C   0  0
    5.7840    1.3390    0.0000 C   0  0
    4.8830   -0.0950    0.0000 C   0  0
    4.0170   -0.5950    0.0000 C   0  0
    2.7690    2.6360    0.0000 C   0  0
    6.9970    2.6360    0.0000 C   0  0
    3.2300    0.6180    0.0000 C   0  0
    6.5360    0.6180    0.0000 C   0  0
    4.0170   -1.5950    0.0000 C   0  0
    2.0000    1.9330    0.0000 C   0  0
    7.7660    1.9330    0.0000 C   0  0
    2.2320    0.9180    0.0000 C   0  0
    7.5340    0.9180    0.0000 C   0  0
    3.1510   -3.0950    0.0000 C   0  0
    2.2850   -1.5950    0.0000 C   0  0
    4.5210    3.7000    0.0000 H   0  0
    3.8240    3.3640    0.0000 H   0  0
    5.9420    3.3640    0.0000 H   0  0
    5.2450    3.7000    0.0000 H   0  0
    5.4200   -0.4050    0.0000 H   0  0
    3.8050   -0.0130    0.0000 H   0  0
    3.4060   -0.7030    0.0000 H   0  0
    2.6380    3.2420    0.0000 H   0  0
    7.1280    3.2420    0.0000 H   0  0
    3.3740    0.0160    0.0000 H   0  0
    6.3920    0.0160    0.0000 H   0  0
    4.2290   -2.1780    0.0000 H   0  0
    4.6280   -1.4880    0.0000 H   0  0
    1.4080    2.1180    0.0000 H   0  0
    8.3580    2.1180    0.0000 H   0  0
    1.7790    0.4940    0.0000 H   0  0
    7.9870    0.4940    0.0000 H   0  0
    2.5310   -3.0950    0.0000 H   0  0
    3.1510   -3.7150    0.0000 H   0  0
    3.7710   -3.0950    0.0000 H   0  0
    2.5950   -1.0580    0.0000 H   0  0
    1.7480   -1.2850    0.0000 H   0  0
    1.9750   -2.1320    0.0000 H   0  0
  1 15  1  0
  1 20  1  0
  1 21  1  0
  2  3  1  0
  2  5  1  0
  2 22  1  0
  2 23  1  0
  3  6  1  0
  3 24  1  0
  3 25  1  0
  4  7  1  0
  4  8  1  0
  4  9  2  0
  5  7  1  0
  5 11  2  0
  6  8  1  0
  6 12  2  0
  7 13  2  0
  8 14  2  0
  9 10  1  0
  9 26  1  0
 10 15  1  0
 10 27  1  0
 10 28  1  0
 11 16  1  0
 11 29  1  0
 12 17  1  0
 12 30  1  0
 13 18  1  0
 13 31  1  0
 14 19  1  0
 14 32  1  0
 15 33  1  0
 15 34  1  0
 16 18  2  0
 16 35  1  0
 17 19  2  0
 17 36  1  0
 18 37  1  0
 19 38  1  0
 20 39  1  0
 20 40  1  0
 20 41  1  0
 21 42  1  0
 21 43  1  0
 21 44  1  0
M  END
> <Name>
2160

> <PUBCHEM_COMPOUND_CID>
2160

> <Toxicity>
0

> <Data Set>
TrainingSet

$$$$
2170
  SciTegic12242523262D

 38 41  0  0  0  0            999 V2000
    2.0000   -1.2560    0.0000 Cl  0  0
    5.8370   -2.5830    0.0000 O   0  0
    4.9040    0.5090    0.0000 N   0  0
    4.0360    2.3110    0.0000 N   0  0
    6.3370   -0.3920    0.0000 N   0  0
    5.4670    1.3350    0.0000 C   0  0
    3.9060    0.5830    0.0000 C   0  0
    5.0330    2.2360    0.0000 C   0  0
    3.4720    1.4840    0.0000 C   0  0
    5.3370   -0.3920    0.0000 C   0  0
    4.7140   -1.1740    0.0000 C   0  0
    4.9360   -2.1490    0.0000 C   0  0
    6.9610   -1.1740    0.0000 C   0  0
    3.7230   -0.8520    0.0000 C   0  0
    6.7380   -2.1490    0.0000 C   0  0
    4.1840   -2.8690    0.0000 C   0  0
    2.9540   -1.5540    0.0000 C   0  0
    3.1860   -2.5700    0.0000 C   0  0
    7.9510   -0.8520    0.0000 C   0  0
    7.4910   -2.8690    0.0000 C   0  0
    8.7200   -1.5540    0.0000 C   0  0
    8.4890   -2.5700    0.0000 C   0  0
    5.9110    0.9020    0.0000 H   0  0
    5.9700    1.6970    0.0000 H   0  0
    3.3100    0.4160    0.0000 H   0  0
    3.9680   -0.0340    0.0000 H   0  0
    5.6300    2.4040    0.0000 H   0  0
    4.9710    2.8530    0.0000 H   0  0
    3.0290    1.9170    0.0000 H   0  0
    2.9690    1.1220    0.0000 H   0  0
    3.7670    2.8690    0.0000 H   0  0
    3.5920   -0.2460    0.0000 H   0  0
    4.3290   -3.4720    0.0000 H   0  0
    2.7330   -2.9930    0.0000 H   0  0
    8.0820   -0.2460    0.0000 H   0  0
    7.3460   -3.4720    0.0000 H   0  0
    9.3120   -1.3690    0.0000 H   0  0
    8.9420   -2.9930    0.0000 H   0  0
  1 17  1  0
  2 12  1  0
  2 15  1  0
  3  6  1  0
  3  7  1  0
  3 10  1  0
  4  8  1  0
  4  9  1  0
  4 31  1  0
  5 10  2  0
  5 13  1  0
  6  8  1  0
  6 23  1  0
  6 24  1  0
  7  9  1  0
  7 25  1  0
  7 26  1  0
  8 27  1  0
  8 28  1  0
  9 29  1  0
  9 30  1  0
 10 11  1  0
 11 12  2  0
 11 14  1  0
 12 16  1  0
 13 15  2  0
 13 19  1  0
 14 17  2  0
 14 32  1  0
 15 20  1  0
 16 18  2  0
 16 33  1  0
 17 18  1  0
 18 34  1  0
 19 21  2  0
 19 35  1  0
 20 22  2  0
 20 36  1  0
 21 22  1  0
 21 37  1  0
 22 38  1  0
M  END
> <Name>
2170

> <PUBCHEM_COMPOUND_CID>
2170

> <Toxicity>
0

> <Data Set>
TestSet

$$$$
33613
  SciTegic12242523262D

 44 46  0  0  1  0            999 V2000
   10.6400    0.8210    0.0000 S   0  0
    7.9750   -1.2010    0.0000 O   0  0
   10.2800   -2.4910    0.0000 O   0  0
   11.9280   -1.9560    0.0000 O   0  0
    6.7480    0.0020    0.0000 O   0  0
    2.4380    0.6490    0.0000 O   0  0
    9.6890   -0.4880    0.0000 N   0  0
    7.9750    1.2250    0.0000 N   0  0
    6.5640    2.6420    0.0000 N   0  0
    9.6890    0.5120    0.0000 C   0  0  1  0  0  0
   11.2280    0.0120    0.0000 C   0  0
   10.6400   -0.7970    0.0000 C   0  0  2  0  0  0
    8.6810    0.5160    0.0000 C   0  0  1  0  0  0
    8.6810   -0.4920    0.0000 C   0  0
   12.0370    0.6000    0.0000 C   0  0
   12.0370   -0.5760    0.0000 C   0  0
   10.9490   -1.7480    0.0000 C   0  0
    7.0090    0.9680    0.0000 C   0  0
    6.3030    1.6760    0.0000 C   0  0  1  0  0  0
    5.3370    1.4200    0.0000 C   0  0
    4.6310    2.1280    0.0000 C   0  0
    5.0760    0.4540    0.0000 C   0  0
    3.6650    1.8710    0.0000 C   0  0
    4.1100    0.1970    0.0000 C   0  0
    3.4040    0.9060    0.0000 C   0  0
    9.5580    1.3520    0.0000 H   0  0
   10.2020   -1.2360    0.0000 H   0  0
    8.1080    0.2790    0.0000 H   0  0
   12.4020    0.0980    0.0000 H   0  0
   12.5390    0.9640    0.0000 H   0  0
   11.6730    1.1010    0.0000 H   0  0
   11.6730   -1.0780    0.0000 H   0  0
   12.5390   -0.9400    0.0000 H   0  0
   12.4020   -0.0740    0.0000 H   0  0
    8.1370    1.8230    0.0000 H   0  0
    5.8660    2.1160    0.0000 H   0  0
   10.4720   -3.0810    0.0000 H   0  0
    6.1270    3.0810    0.0000 H   0  0
    7.1630    2.8010    0.0000 H   0  0
    4.7930    2.7270    0.0000 H   0  0
    5.5140    0.0150    0.0000 H   0  0
    3.2270    2.3100    0.0000 H   0  0
    3.9480   -0.4010    0.0000 H   0  0
    2.0000    1.0880    0.0000 H   0  0
  1 10  1  0
  1 11  1  0
  2 14  2  0
  3 17  1  0
  3 37  1  0
  4 17  2  0
  5 18  2  0
  6 25  1  0
  6 44  1  0
  7 10  1  0
  7 12  1  0
  7 14  1  0
 13  8  1  1
  8 18  1  0
  8 35  1  0
 19  9  1  1
  9 38  1  0
  9 39  1  0
 10 13  1  0
 10 26  1  6
 11 12  1  0
 11 15  1  0
 11 16  1  0
 12 17  1  6
 12 27  1  1
 13 14  1  0
 13 28  1  6
 15 29  1  0
 15 30  1  0
 15 31  1  0
 16 32  1  0
 16 33  1  0
 16 34  1  0
 18 19  1  0
 19 20  1  0
 19 36  1  6
 20 21  1  0
 20 22  2  0
 21 23  2  0
 21 40  1  0
 22 24  1  0
 22 41  1  0
 23 25  1  0
 23 42  1  0
 24 25  2  0
 24 43  1  0
M  END
> <Name>
33613

> <PUBCHEM_COMPOUND_CID>
33613

> <Toxicity>
0

> <Data Set>
TestSet

$$$$
6249
  SciTegic12242523262D

 43 45  0  0  1  0            999 V2000
    9.2360    0.8210    0.0000 S   0  0
    6.5720   -1.2010    0.0000 O   0  0
    8.8760   -2.4910    0.0000 O   0  0
   10.5240   -1.9560    0.0000 O   0  0
    5.3440    0.0020    0.0000 O   0  0
    8.2850   -0.4880    0.0000 N   0  0
    6.5720    1.2250    0.0000 N   0  0
    5.1600    2.6420    0.0000 N   0  0
    8.2850    0.5120    0.0000 C   0  0  1  0  0  0
    9.8240    0.0120    0.0000 C   0  0
    9.2360   -0.7970    0.0000 C   0  0  2  0  0  0
    7.2770    0.5160    0.0000 C   0  0  1  0  0  0
    7.2770   -0.4920    0.0000 C   0  0
   10.6330    0.6000    0.0000 C   0  0
   10.6330   -0.5760    0.0000 C   0  0
    9.5460   -1.7480    0.0000 C   0  0
    5.6050    0.9680    0.0000 C   0  0
    4.8990    1.6760    0.0000 C   0  0  1  0  0  0
    3.9330    1.4200    0.0000 C   0  0
    3.2270    2.1280    0.0000 C   0  0
    3.6720    0.4540    0.0000 C   0  0
    2.2610    1.8710    0.0000 C   0  0
    2.7060    0.1970    0.0000 C   0  0
    2.0000    0.9060    0.0000 C   0  0
    8.1540    1.3520    0.0000 H   0  0
    8.7980   -1.2360    0.0000 H   0  0
    6.7040    0.2790    0.0000 H   0  0
   10.9980    0.0980    0.0000 H   0  0
   11.1350    0.9640    0.0000 H   0  0
   10.2690    1.1010    0.0000 H   0  0
   10.2690   -1.0780    0.0000 H   0  0
   11.1350   -0.9400    0.0000 H   0  0
   10.9980   -0.0740    0.0000 H   0  0
    6.7330    1.8230    0.0000 H   0  0
    4.4620    2.1160    0.0000 H   0  0
    9.0680   -3.0810    0.0000 H   0  0
    4.7230    3.0810    0.0000 H   0  0
    5.7590    2.8010    0.0000 H   0  0
    3.3890    2.7270    0.0000 H   0  0
    4.1100    0.0150    0.0000 H   0  0
    1.8230    2.3100    0.0000 H   0  0
    2.5440   -0.4010    0.0000 H   0  0
    1.4010    0.7470    0.0000 H   0  0
  1  9  1  0
  1 10  1  0
  2 13  2  0
  3 16  1  0
  3 36  1  0
  4 16  2  0
  5 17  2  0
  6  9  1  0
  6 11  1  0
  6 13  1  0
 12  7  1  1
  7 17  1  0
  7 34  1  0
 18  8  1  1
  8 37  1  0
  8 38  1  0
  9 12  1  0
  9 25  1  6
 10 11  1  0
 10 14  1  0
 10 15  1  0
 11 16  1  6
 11 26  1  1
 12 13  1  0
 12 27  1  6
 14 28  1  0
 14 29  1  0
 14 30  1  0
 15 31  1  0
 15 32  1  0
 15 33  1  0
 17 18  1  0
 18 19  1  0
 18 35  1  6
 19 20  2  0
 19 21  1  0
 20 22  1  0
 20 39  1  0
 21 23  2  0
 21 40  1  0
 22 24  2  0
 22 41  1  0
 23 24  1  0
 23 42  1  0
 24 43  1  0
M  END
> <Name>
6249

> <PUBCHEM_COMPOUND_CID>
6249

> <Toxicity>
0

> <Data Set>
TestSet

$$$$
135409400
  SciTegic12242523262D

 23 25  0  0  0  0            999 V2000
    3.7820    1.7140    0.0000 Cl  0  0
    2.0000    0.7040    0.0000 Cl  0  0
    8.9260   -0.3200    0.0000 O   0  0
    6.3960    0.1800    0.0000 N   0  0
    7.3420   -1.1250    0.0000 N   0  0
    5.5300   -1.3200    0.0000 N   0  0
    5.5300    0.6800    0.0000 C   0  0
    7.3420    0.4840    0.0000 C   0  0
    6.3960   -0.8200    0.0000 C   0  0
    4.6640    0.1800    0.0000 C   0  0
    4.6640   -0.8200    0.0000 C   0  0
    7.9260   -0.3200    0.0000 C   0  0
    3.7700    0.7140    0.0000 C   0  0
    3.7700   -1.3550    0.0000 C   0  0
    2.8640    0.2000    0.0000 C   0  0
    2.8640   -0.8410    0.0000 C   0  0
    5.9290    1.1550    0.0000 H   0  0
    5.1320    1.1550    0.0000 H   0  0
    7.8800    0.7940    0.0000 H   0  0
    7.0910    1.0510    0.0000 H   0  0
    7.5350   -1.7140    0.0000 H   0  0
    3.7770   -1.9750    0.0000 H   0  0
    2.3280   -1.1530    0.0000 H   0  0
  1 13  1  0
  2 15  1  0
  3 12  2  0
  4  7  1  0
  4  8  1  0
  4  9  1  0
  5  9  1  0
  5 12  1  0
  5 21  1  0
  6  9  2  0
  6 11  1  0
  7 10  1  0
  7 17  1  0
  7 18  1  0
  8 12  1  0
  8 19  1  0
  8 20  1  0
 10 11  2  0
 10 13  1  0
 11 14  1  0
 13 15  2  0
 14 16  2  0
 14 22  1  0
 15 16  1  0
 16 23  1  0
M  END
> <Name>
135409400

> <PUBCHEM_COMPOUND_CID>
135409400

> <Toxicity>
1

> <Data Set>
TrainingSet

$$$$
2187
  SciTegic12242523262D

 41 42  0  0  0  0            999 V2000
    7.1960   -2.2310    0.0000 N   0  0
    8.0050   -2.8180    0.0000 N   0  0
    2.0000   -2.2310    0.0000 N   0  0
    5.4640    3.7690    0.0000 N   0  0
    6.6960   -3.7690    0.0000 N   0  0
    3.7320   -1.2310    0.0000 C   0  0
    5.4640    1.7690    0.0000 C   0  0
    4.5980   -0.7310    0.0000 C   0  0
    5.4640    0.7690    0.0000 C   0  0
    4.5980    0.2690    0.0000 C   0  0
    6.3300   -0.7310    0.0000 C   0  0
    5.4640   -1.2310    0.0000 C   0  0
    6.3300    0.2690    0.0000 C   0  0
    7.1960   -1.2310    0.0000 C   0  0
    3.2320   -0.3650    0.0000 C   0  0
    4.2320   -2.0970    0.0000 C   0  0
    6.4640    1.7690    0.0000 C   0  0
    4.4640    1.7690    0.0000 C   0  0
    2.8660   -1.7310    0.0000 C   0  0
    5.4640    2.7690    0.0000 C   0  0
    6.3870   -2.8180    0.0000 C   0  0
    7.6960   -3.7690    0.0000 C   0  0
    4.0610    0.5790    0.0000 H   0  0
    5.4640   -1.8510    0.0000 H   0  0
    6.8670    0.5790    0.0000 H   0  0
    7.8070   -1.3380    0.0000 H   0  0
    7.4080   -0.6480    0.0000 H   0  0
    3.7690   -0.0550    0.0000 H   0  0
    2.9220    0.1720    0.0000 H   0  0
    2.6950   -0.6750    0.0000 H   0  0
    3.6950   -2.4070    0.0000 H   0  0
    4.5420   -2.6340    0.0000 H   0  0
    4.7690   -1.7870    0.0000 H   0  0
    6.4640    1.1490    0.0000 H   0  0
    7.0840    1.7690    0.0000 H   0  0
    6.4640    2.3890    0.0000 H   0  0
    4.4640    2.3890    0.0000 H   0  0
    3.8440    1.7690    0.0000 H   0  0
    4.4640    1.1490    0.0000 H   0  0
    5.7980   -2.6270    0.0000 H   0  0
    8.0610   -4.2710    0.0000 H   0  0
  1  2  1  0
  1 14  1  0
  1 21  1  0
  2 22  2  0
  3 19  3  0
  4 20  3  0
  5 21  2  0
  5 22  1  0
  6  8  1  0
  6 15  1  0
  6 16  1  0
  6 19  1  0
  7  9  1  0
  7 17  1  0
  7 18  1  0
  7 20  1  0
  8 10  2  0
  8 12  1  0
  9 10  1  0
  9 13  2  0
 10 23  1  0
 11 12  2  0
 11 13  1  0
 11 14  1  0
 12 24  1  0
 13 25  1  0
 14 26  1  0
 14 27  1  0
 15 28  1  0
 15 29  1  0
 15 30  1  0
 16 31  1  0
 16 32  1  0
 16 33  1  0
 17 34  1  0
 17 35  1  0
 17 36  1  0
 18 37  1  0
 18 38  1  0
 18 39  1  0
 21 40  1  0
 22 41  1  0
M  END
> <Name>
2187

> <PUBCHEM_COMPOUND_CID>
2187

> <Toxicity>
1

> <Data Set>
TrainingSet

$$$$
10182969
  SciTegic12242523262D

 59 63  0  0  0  0            999 V2000
    8.0620   -0.8690    0.0000 O   0  0
    2.8660    0.1310    0.0000 O   0  0
    9.5170    3.6310    0.0000 O   0  0
   11.1170   -3.4760    0.0000 O   0  0
    7.1960    0.6310    0.0000 N   0  0
    3.7320   -1.3690    0.0000 N   0  0
    9.8740    0.3260    0.0000 N   0  0
   10.4580    1.1310    0.0000 N   0  0
   11.1640    3.0930    0.0000 N   0  0
    8.0620    2.1310    0.0000 C   0  0
    7.1960    1.6310    0.0000 C   0  0
    8.9280    1.6310    0.0000 C   0  0
    8.9280    0.6310    0.0000 C   0  0
    3.7320   -2.3690    0.0000 C   0  0
    2.8660   -2.8690    0.0000 C   0  0
    2.0000   -2.3690    0.0000 C   0  0
    2.0000   -1.3690    0.0000 C   0  0
    8.0620    0.1310    0.0000 C   0  0
    6.3300    0.1310    0.0000 C   0  0
    4.5980   -0.8690    0.0000 C   0  0
    2.8660   -0.8690    0.0000 C   0  0
    9.8740    1.9360    0.0000 C   0  0
    6.3300   -0.8690    0.0000 C   0  0
    5.4640    0.6310    0.0000 C   0  0
    5.4640   -1.3690    0.0000 C   0  0
    4.5980    0.1310    0.0000 C   0  0
   10.1850   -0.6240    0.0000 C   0  0
   10.1850    2.8860    0.0000 C   0  0
    9.5170   -1.3680    0.0000 C   0  0
   11.1640   -0.8300    0.0000 C   0  0
    9.8280   -2.3190    0.0000 C   0  0
   11.4740   -1.7810    0.0000 C   0  0
   10.8060   -2.5250    0.0000 C   0  0
   12.0960   -3.6820    0.0000 C   0  0
    8.4610    2.6060    0.0000 H   0  0
    7.6640    2.6060    0.0000 H   0  0
    6.9840    2.2140    0.0000 H   0  0
    6.5860    1.5240    0.0000 H   0  0
    2.4680   -3.3440    0.0000 H   0  0
    3.2650   -3.3440    0.0000 H   0  0
    3.9440   -2.9520    0.0000 H   0  0
    4.3430   -2.2610    0.0000 H   0  0
    1.3890   -2.2610    0.0000 H   0  0
    1.7880   -2.9520    0.0000 H   0  0
    1.7880   -0.7860    0.0000 H   0  0
    1.3890   -1.4760    0.0000 H   0  0
    6.8670   -1.1790    0.0000 H   0  0
    5.4640    1.2510    0.0000 H   0  0
    5.4640   -1.9890    0.0000 H   0  0
    4.0610    0.4410    0.0000 H   0  0
    8.9110   -1.2410    0.0000 H   0  0
   11.5780   -0.3690    0.0000 H   0  0
    9.4140   -2.7800    0.0000 H   0  0
   12.0810   -1.9090    0.0000 H   0  0
   11.3560    3.6820    0.0000 H   0  0
   11.5780    2.6310    0.0000 H   0  0
   11.9680   -4.2890    0.0000 H   0  0
   12.7020   -3.8100    0.0000 H   0  0
   12.2230   -3.0750    0.0000 H   0  0
  1 18  2  0
  2 21  2  0
  3 28  2  0
  4 33  1  0
  4 34  1  0
  5 11  1  0
  5 18  1  0
  5 19  1  0
  6 14  1  0
  6 20  1  0
  6 21  1  0
  7  8  1  0
  7 13  1  0
  7 27  1  0
  8 22  2  0
  9 28  1  0
  9 55  1  0
  9 56  1  0
 10 11  1  0
 10 12  1  0
 10 35  1  0
 10 36  1  0
 11 37  1  0
 11 38  1  0
 12 13  2  0
 12 22  1  0
 13 18  1  0
 14 15  1  0
 14 41  1  0
 14 42  1  0
 15 16  1  0
 15 39  1  0
 15 40  1  0
 16 17  1  0
 16 43  1  0
 16 44  1  0
 17 21  1  0
 17 45  1  0
 17 46  1  0
 19 23  2  0
 19 24  1  0
 20 25  2  0
 20 26  1  0
 22 28  1  0
 23 25  1  0
 23 47  1  0
 24 26  2  0
 24 48  1  0
 25 49  1  0
 26 50  1  0
 27 29  2  0
 27 30  1  0
 29 31  1  0
 29 51  1  0
 30 32  2  0
 30 52  1  0
 31 33  2  0
 31 53  1  0
 32 33  1  0
 32 54  1  0
 34 57  1  0
 34 58  1  0
 34 59  1  0
M  END
> <Name>
10182969

> <PUBCHEM_COMPOUND_CID>
10182969

> <Toxicity>
1

> <Data Set>
TrainingSet

$$$$
11561674
  SciTegic12242523262D

 56 58  0  0  1  0            999 V2000
    8.6280    1.7140    0.0000 S   0  0
    8.6280    2.7140    0.0000 O   0  0
    8.6280    0.7140    0.0000 O   0  0
    5.8550    2.6030    0.0000 O   0  0
    5.8550   -0.9070    0.0000 O   0  0
    7.1280   -2.6160    0.0000 O   0  0
    9.1280   -2.6160    0.0000 O   0  0
    2.0000    2.8480    0.0000 O   0  0
    6.1280    0.8480    0.0000 N   0  0
    3.7320    2.8480    0.0000 N   0  0
    7.1280    0.8480    0.0000 C   0  0  2  0  0  0
    7.6280    1.7140    0.0000 C   0  0
    7.6280   -0.0180    0.0000 C   0  0
    5.5440    1.6530    0.0000 C   0  0
    5.5440    0.0430    0.0000 C   0  0
    4.5980    1.3480    0.0000 C   0  0
    4.5980    0.3480    0.0000 C   0  0
    7.1280   -0.8840    0.0000 C   0  0
    8.6280   -0.0180    0.0000 C   0  0
    3.7320    1.8480    0.0000 C   0  0
    9.6280    1.7140    0.0000 C   0  0
    3.7320   -0.1520    0.0000 C   0  0
    7.6280   -1.7500    0.0000 C   0  0
    9.1280   -0.8840    0.0000 C   0  0
    2.8660    1.3480    0.0000 C   0  0
    8.6280   -1.7500    0.0000 C   0  0
    2.8660    0.3480    0.0000 C   0  0
    2.8660    3.3480    0.0000 C   0  0
    7.6280   -3.4820    0.0000 C   0  0
   10.1280   -2.6160    0.0000 C   0  0
    2.8660    4.3480    0.0000 C   0  0
    7.1280   -4.3480    0.0000 C   0  0
    6.8180    1.3850    0.0000 H   0  0
    7.7360    2.3250    0.0000 H   0  0
    7.0450    1.9260    0.0000 H   0  0
    6.5080   -0.8840    0.0000 H   0  0
    8.9380    0.5190    0.0000 H   0  0
    9.6280    1.0940    0.0000 H   0  0
   10.2480    1.7140    0.0000 H   0  0
    9.6280    2.3340    0.0000 H   0  0
    3.7320   -0.7720    0.0000 H   0  0
    9.7480   -0.8840    0.0000 H   0  0
    2.3290    1.6580    0.0000 H   0  0
    2.3290    0.0380    0.0000 H   0  0
    4.2690    3.1580    0.0000 H   0  0
    8.1030   -3.8810    0.0000 H   0  0
    8.1030   -3.0840    0.0000 H   0  0
   10.1280   -3.2360    0.0000 H   0  0
   10.7480   -2.6160    0.0000 H   0  0
   10.1280   -1.9960    0.0000 H   0  0
    3.4860    4.3480    0.0000 H   0  0
    2.8660    4.9680    0.0000 H   0  0
    2.2460    4.3480    0.0000 H   0  0
    6.5910   -4.0380    0.0000 H   0  0
    6.8180   -4.8850    0.0000 H   0  0
    7.6650   -4.6580    0.0000 H   0  0
  1  2  2  0
  1  3  2  0
  1 12  1  0
  1 21  1  0
  4 14  2  0
  5 15  2  0
  6 23  1  0
  6 29  1  0
  7 26  1  0
  7 30  1  0
  8 28  2  0
  9 11  1  0
  9 14  1  0
  9 15  1  0
 10 20  1  0
 10 28  1  0
 10 45  1  0
 11 12  1  6
 11 13  1  0
 11 33  1  1
 12 34  1  0
 12 35  1  0
 13 18  2  0
 13 19  1  0
 14 16  1  0
 15 17  1  0
 16 17  2  0
 16 20  1  0
 17 22  1  0
 18 23  1  0
 18 36  1  0
 19 24  2  0
 19 37  1  0
 20 25  2  0
 21 38  1  0
 21 39  1  0
 21 40  1  0
 22 27  2  0
 22 41  1  0
 23 26  2  0
 24 26  1  0
 24 42  1  0
 25 27  1  0
 25 43  1  0
 27 44  1  0
 28 31  1  0
 29 32  1  0
 29 46  1  0
 29 47  1  0
 30 48  1  0
 30 49  1  0
 30 50  1  0
 31 51  1  0
 31 52  1  0
 31 53  1  0
 32 54  1  0
 32 55  1  0
 32 56  1  0
M  END
> <Name>
11561674

> <PUBCHEM_COMPOUND_CID>
11561674

> <Toxicity>
1

> <Data Set>
TrainingSet

$$$$
152951
  SciTegic12242523262D

 71 73  0  0  1  0            999 V2000
    8.5990    1.3880    0.0000 S   0  0
    8.5990   -1.6120    0.0000 O   0  0
    7.7330   -4.1120    0.0000 O   0  0
    8.5990   -2.6120    0.0000 O   0  0
    7.5990    1.3880    0.0000 O   0  0
    9.5990    1.3880    0.0000 O   0  0
    6.8670   -1.6120    0.0000 N   0  0
    8.5990    0.3880    0.0000 N   0  0
   10.3590    2.3530    0.0000 N   0  0
    4.2690   -0.1120    0.0000 N   0  0
    2.5370   -0.1120    0.0000 N   0  0
    3.4030    1.3880    0.0000 N   0  0
    5.1350   -2.6120    0.0000 C   0  0  1  0  0  0
    6.0010   -3.1120    0.0000 C   0  0
    6.8670   -2.6120    0.0000 C   0  0  2  0  0  0
    5.1350   -1.6120    0.0000 C   0  0
    6.0010   -1.1120    0.0000 C   0  0
    7.7330   -0.1120    0.0000 C   0  0  2  0  0  0
    7.7330   -1.1120    0.0000 C   0  0
    4.2690   -3.1120    0.0000 C   0  0
    7.7330   -3.1120    0.0000 C   0  0
    6.8670    0.3880    0.0000 C   0  0
   11.2650    3.9080    0.0000 C   0  0  2  0  0  0
   10.3590    4.4220    0.0000 C   0  0
    9.4650    2.8880    0.0000 C   0  0
    9.4650    3.8880    0.0000 C   0  0
   11.2650    2.8670    0.0000 C   0  0
    8.5990    2.3880    0.0000 C   0  0
    6.0010   -0.1120    0.0000 C   0  0
   12.1290    4.4120    0.0000 C   0  0
    8.5990    4.3880    0.0000 C   0  0
    7.7330    2.8880    0.0000 C   0  0
    5.1350    0.3880    0.0000 C   0  0
    7.7330    3.8880    0.0000 C   0  0
    3.4030    0.3880    0.0000 C   0  0
    5.1350   -3.2320    0.0000 H   0  0
    5.6020   -3.5870    0.0000 H   0  0
    6.4000   -3.5870    0.0000 H   0  0
    7.4040   -2.3020    0.0000 H   0  0
    4.9230   -1.0300    0.0000 H   0  0
    4.5240   -1.7200    0.0000 H   0  0
    6.4000   -0.6370    0.0000 H   0  0
    5.6020   -0.6370    0.0000 H   0  0
    7.7330    0.5080    0.0000 H   0  0
    3.9590   -2.5750    0.0000 H   0  0
    3.7320   -3.4220    0.0000 H   0  0
    4.5790   -3.6490    0.0000 H   0  0
    7.2660    0.8630    0.0000 H   0  0
    6.4680    0.8630    0.0000 H   0  0
   11.8030    3.6000    0.0000 H   0  0
    9.1360    0.0780    0.0000 H   0  0
   10.7530    4.9010    0.0000 H   0  0
    9.9540    4.8920    0.0000 H   0  0
   11.4740    2.2830    0.0000 H   0  0
   11.8760    2.9730    0.0000 H   0  0
    5.6020   -0.5870    0.0000 H   0  0
    6.4000   -0.5870    0.0000 H   0  0
   10.3520    1.7330    0.0000 H   0  0
   12.4410    3.8760    0.0000 H   0  0
   12.6650    4.7240    0.0000 H   0  0
   11.8170    4.9480    0.0000 H   0  0
    8.5990    5.0080    0.0000 H   0  0
    7.1960    2.5780    0.0000 H   0  0
    5.5340    0.8630    0.0000 H   0  0
    4.7360    0.8630    0.0000 H   0  0
    7.1960    4.1980    0.0000 H   0  0
    8.2700   -4.4220    0.0000 H   0  0
    2.0000    0.1980    0.0000 H   0  0
    2.5370   -0.7320    0.0000 H   0  0
    2.8660    1.6980    0.0000 H   0  0
    3.9400    1.6980    0.0000 H   0  0
  1  5  2  0
  1  6  2  0
  1  8  1  0
  1 28  1  0
  2 19  2  0
  3 21  1  0
  3 67  1  0
  4 21  2  0
  7 15  1  0
  7 17  1  0
  7 19  1  0
 18  8  1  6
  8 51  1  0
  9 25  1  0
  9 27  1  0
  9 58  1  0
 10 33  1  0
 10 35  2  0
 11 35  1  0
 11 68  1  0
 11 69  1  0
 12 35  1  0
 12 70  1  0
 12 71  1  0
 13 14  1  0
 13 16  1  0
 13 20  1  6
 13 36  1  1
 14 15  1  0
 14 37  1  0
 14 38  1  0
 15 21  1  1
 15 39  1  6
 16 17  1  0
 16 40  1  0
 16 41  1  0
 17 42  1  0
 17 43  1  0
 18 19  1  0
 18 22  1  0
 18 44  1  1
 20 45  1  0
 20 46  1  0
 20 47  1  0
 22 29  1  0
 22 48  1  0
 22 49  1  0
 23 24  1  0
 23 27  1  0
 23 30  1  1
 23 50  1  6
 24 26  1  0
 24 52  1  0
 24 53  1  0
 25 26  2  0
 25 28  1  0
 26 31  1  0
 27 54  1  0
 27 55  1  0
 28 32  2  0
 29 33  1  0
 29 56  1  0
 29 57  1  0
 30 59  1  0
 30 60  1  0
 30 61  1  0
 31 34  2  0
 31 62  1  0
 32 34  1  0
 32 63  1  0
 33 64  1  0
 33 65  1  0
 34 66  1  0
M  END
> <Name>
152951

> <PUBCHEM_COMPOUND_CID>
152951

> <Toxicity>
1

> <Data Set>
TrainingSet

$$$$
54670067
  SciTegic12242523262D

 20 20  0  0  1  0            999 V2000
    5.0300   -0.5360    0.0000 O   0  0
    3.3550    1.5520    0.0000 O   0  0
    2.4610   -0.2270    0.0000 O   0  0
    5.0870    2.5520    0.0000 O   0  0
    3.1330   -2.2960    0.0000 O   0  0
    5.3090   -2.2960    0.0000 O   0  0
    4.2210    0.0520    0.0000 C   0  0  2  0  0  0
    4.2210    1.0520    0.0000 C   0  0  2  0  0  0
    3.4120   -0.5360    0.0000 C   0  0
    5.0870    1.5520    0.0000 C   0  0
    3.7210   -1.4870    0.0000 C   0  0
    4.7210   -1.4870    0.0000 C   0  0
    4.9780    0.4380    0.0000 H   0  0
    4.2210    1.6720    0.0000 H   0  0
    5.2990    0.9700    0.0000 H   0  0
    5.6970    1.6600    0.0000 H   0  0
    3.3550    2.1720    0.0000 H   0  0
    2.0000   -0.6420    0.0000 H   0  0
    5.6240    2.8620    0.0000 H   0  0
    3.3850   -2.8620    0.0000 H   0  0
  1  7  1  0
  1 12  1  0
  2  8  1  0
  2 17  1  0
  3  9  1  0
  3 18  1  0
  4 10  1  0
  4 19  1  0
  5 11  1  0
  5 20  1  0
  6 12  2  0
  7  8  1  0
  7  9  1  0
  7 13  1  6
  8 10  1  1
  8 14  1  6
  9 11  2  0
 10 15  1  0
 10 16  1  0
 11 12  1  0
M  END
> <Name>
54670067

> <PUBCHEM_COMPOUND_CID>
54670067

> <Toxicity>
0

> <Data Set>
TrainingSet

$$$$
2244
  SciTegic12242523262D

 21 21  0  0  0  0            999 V2000
    3.7320   -0.0600    0.0000 O   0  0
    6.3300    1.4400    0.0000 O   0  0
    4.5980    1.4400    0.0000 O   0  0
    2.8660   -1.5600    0.0000 O   0  0
    4.5980   -0.5600    0.0000 C   0  0
    5.4640   -0.0600    0.0000 C   0  0
    4.5980   -1.5600    0.0000 C   0  0
    6.3300   -0.5600    0.0000 C   0  0
    5.4640   -2.0600    0.0000 C   0  0
    6.3300   -1.5600    0.0000 C   0  0
    5.4640    0.9400    0.0000 C   0  0
    2.8660   -0.5600    0.0000 C   0  0
    2.0000   -0.0600    0.0000 C   0  0
    4.0610   -1.8700    0.0000 H   0  0
    6.8670   -0.2500    0.0000 H   0  0
    5.4640   -2.6800    0.0000 H   0  0
    6.8670   -1.8700    0.0000 H   0  0
    2.3100    0.4770    0.0000 H   0  0
    1.4630    0.2500    0.0000 H   0  0
    1.6900   -0.5970    0.0000 H   0  0
    6.3300    2.0600    0.0000 H   0  0
  1  5  1  0
  1 12  1  0
  2 11  1  0
  2 21  1  0
  3 11  2  0
  4 12  2  0
  5  6  2  0
  5  7  1  0
  6  8  1  0
  6 11  1  0
  7  9  2  0
  7 14  1  0
  8 10  2  0
  8 15  1  0
  9 10  1  0
  9 16  1  0
 10 17  1  0
 12 13  1  0
 13 18  1  0
 13 19  1  0
 13 20  1  0
M  END
> <Name>
2244

> <PUBCHEM_COMPOUND_CID>
2244

> <Toxicity>
0

> <Data Set>
TrainingSet

$$$$
54841
  SciTegic12242523262D

 40 41  0  0  1  0            999 V2000
    3.7320   -0.2500    0.0000 O   0  0
    7.1960   -0.2500    0.0000 N   0  0
    4.5980    0.2500    0.0000 C   0  0  2  0  0  0
    5.4640   -0.2500    0.0000 C   0  0
    4.5980    1.2500    0.0000 C   0  0
    6.3300    0.2500    0.0000 C   0  0
    3.7320   -1.2500    0.0000 C   0  0
    5.4640    1.7500    0.0000 C   0  0
    3.7320    1.7500    0.0000 C   0  0
    2.8660   -1.7500    0.0000 C   0  0
    5.4640    2.7500    0.0000 C   0  0
    3.7320    2.7500    0.0000 C   0  0
    4.5980   -1.7500    0.0000 C   0  0
    4.5980    3.2500    0.0000 C   0  0
    8.0620    0.2500    0.0000 C   0  0
    2.8660   -2.7500    0.0000 C   0  0
    2.0000   -1.2500    0.0000 C   0  0
    4.5980   -2.7500    0.0000 C   0  0
    3.7320   -3.2500    0.0000 C   0  0
    4.5980   -0.3700    0.0000 H   0  0
    5.0660   -0.7250    0.0000 H   0  0
    5.8630   -0.7250    0.0000 H   0  0
    6.7290    0.7250    0.0000 H   0  0
    5.9320    0.7250    0.0000 H   0  0
    6.0010    1.4400    0.0000 H   0  0
    3.1950    1.4400    0.0000 H   0  0
    7.1960   -0.8700    0.0000 H   0  0
    6.0010    3.0600    0.0000 H   0  0
    3.1950    3.0600    0.0000 H   0  0
    5.1350   -1.4400    0.0000 H   0  0
    4.5980    3.8700    0.0000 H   0  0
    8.3720   -0.2870    0.0000 H   0  0
    8.5990    0.5600    0.0000 H   0  0
    7.7520    0.7870    0.0000 H   0  0
    2.3290   -3.0600    0.0000 H   0  0
    2.3100   -0.7130    0.0000 H   0  0
    1.4630   -0.9400    0.0000 H   0  0
    1.6900   -1.7870    0.0000 H   0  0
    5.1350   -3.0600    0.0000 H   0  0
    3.7320   -3.8700    0.0000 H   0  0
  3  1  1  1
  1  7  1  0
  2  6  1  0
  2 15  1  0
  2 27  1  0
  3  4  1  0
  3  5  1  0
  3 20  1  6
  4  6  1  0
  4 21  1  0
  4 22  1  0
  5  8  2  0
  5  9  1  0
  6 23  1  0
  6 24  1  0
  7 10  1  0
  7 13  2  0
  8 11  1  0
  8 25  1  0
  9 12  2  0
  9 26  1  0
 10 16  2  0
 10 17  1  0
 11 14  2  0
 11 28  1  0
 12 14  1  0
 12 29  1  0
 13 18  1  0
 13 30  1  0
 14 31  1  0
 15 32  1  0
 15 33  1  0
 15 34  1  0
 16 19  1  0
 16 35  1  0
 17 36  1  0
 17 37  1  0
 17 38  1  0
 18 19  2  0
 18 39  1  0
 19 40  1  0
M  END
> <Name>
54841

> <PUBCHEM_COMPOUND_CID>
54841

> <Toxicity>
1

> <Data Set>
TestSet

$$$$
447043
  SciTegic12242523262D

124126  0  0  1  0            999 V2000
    7.5610   -1.6210    0.0000 O   0  0
    5.9330    0.6200    0.0000 O   0  0
    8.6540   -1.9970    0.0000 O   0  0
    5.8290   -1.6210    0.0000 O   0  0
    4.7740    1.9070    0.0000 O   0  0
    8.0610    3.4110    0.0000 O   0  0
    2.3100    0.3610    0.0000 O   0  0
    7.5610   -3.6210    0.0000 O   0  0
    2.1290    1.8560    0.0000 O   0  0
   10.0590    4.6140    0.0000 O   0  0
   11.5420    3.8580    0.0000 O   0  0
    6.5090    3.3290    0.0000 O   0  0
   11.6680    1.3280    0.0000 N   0  0
    5.8290   -4.6210    0.0000 N   0  0
    8.0610   -0.7550    0.0000 C   0  0  2  0  0  0
    7.3180   -0.0860    0.0000 C   0  0  2  0  0  0
    9.0120   -1.0640    0.0000 C   0  0  1  0  0  0
    6.9110    0.8280    0.0000 C   0  0  1  0  0  0
   10.0070   -0.9590    0.0000 C   0  0
   10.8730   -0.4590    0.0000 C   0  0  2  0  0  0
    6.9110    1.8280    0.0000 C   0  0  2  0  0  0
    6.6950   -2.1210    0.0000 C   0  0  2  0  0  0
    6.5090   -0.6740    0.0000 C   0  0
    4.9820    0.9290    0.0000 C   0  0  2  0  0  0
    9.6420   -1.8410    0.0000 C   0  0
    3.2880    0.5690    0.0000 C   0  0  2  0  0  0
    6.6950   -3.1210    0.0000 C   0  0  1  0  0  0
   11.4600    0.3500    0.0000 C   0  0
    5.8290   -3.6210    0.0000 C   0  0  2  0  0  0
    4.2390    0.2600    0.0000 C   0  0
    3.0800    1.5470    0.0000 C   0  0  2  0  0  0
   11.4600    2.3060    0.0000 C   0  0  1  0  0  0
   10.0070    3.6150    0.0000 C   0  0  1  0  0  0
    4.9630   -3.1210    0.0000 C   0  0
   10.8730    3.1150    0.0000 C   0  0  2  0  0  0
    3.8230    2.2160    0.0000 C   0  0  2  0  0  0
    4.9630   -2.1210    0.0000 C   0  0  1  0  0  0
    9.0120    3.7200    0.0000 C   0  0  1  0  0  0
   11.5420   -1.2020    0.0000 C   0  0
    7.3180    2.7410    0.0000 C   0  0
    5.9330    2.0360    0.0000 C   0  0
    2.9790   -0.3820    0.0000 C   0  0
   12.3740    2.7130    0.0000 C   0  0
   10.8050    4.2170    0.0000 C   0  0
    8.9080    4.7140    0.0000 C   0  0
   12.6680    1.3280    0.0000 C   0  0
    3.6150    3.1940    0.0000 C   0  0
    4.0970   -1.6210    0.0000 C   0  0
    4.9630   -5.1210    0.0000 C   0  0
    6.6950   -5.1210    0.0000 C   0  0
    7.9940    5.1210    0.0000 C   0  0
    2.0010   -0.5900    0.0000 C   0  0
    7.4490   -0.8520    0.0000 H   0  0
    6.7190    0.0750    0.0000 H   0  0
    6.6300    0.2760    0.0000 H   0  0
    9.8360   -1.5550    0.0000 H   0  0
    9.8150   -0.3700    0.0000 H   0  0
   11.4920   -0.4270    0.0000 H   0  0
    6.6300    2.3800    0.0000 H   0  0
    6.6950   -1.5010    0.0000 H   0  0
    6.1450   -0.1720    0.0000 H   0  0
    6.0070   -1.0380    0.0000 H   0  0
    6.8730   -1.1750    0.0000 H   0  0
    5.1110    0.3220    0.0000 H   0  0
    9.1600   -2.2310    0.0000 H   0  0
   10.0320   -2.3230    0.0000 H   0  0
   10.1230   -1.4510    0.0000 H   0  0
    6.6950   -3.7410    0.0000 H   0  0
   11.7890   -0.1760    0.0000 H   0  0
   10.8940    0.6020    0.0000 H   0  0
    5.2920   -3.9310    0.0000 H   0  0
    3.9480   -0.2880    0.0000 H   0  0
    4.7280   -0.1220    0.0000 H   0  0
    2.6190    1.1320    0.0000 H   0  0
   12.0130    2.0250    0.0000 H   0  0
    4.3520   -3.0130    0.0000 H   0  0
    4.7510   -3.7030    0.0000 H   0  0
   11.4920    3.0830    0.0000 H   0  0
    4.2840    2.6310    0.0000 H   0  0
    4.9630   -1.5010    0.0000 H   0  0
    8.4920    4.0570    0.0000 H   0  0
    8.0410   -2.0940    0.0000 H   0  0
   11.0810   -1.6170    0.0000 H   0  0
   11.9570   -1.6630    0.0000 H   0  0
   12.0030   -0.7880    0.0000 H   0  0
    6.0620    2.6420    0.0000 H   0  0
    5.3270    2.1650    0.0000 H   0  0
    5.8040    1.4290    0.0000 H   0  0
    2.3890   -0.1910    0.0000 H   0  0
    2.7870   -0.9720    0.0000 H   0  0
    3.5680   -0.5740    0.0000 H   0  0
   12.6260    2.1460    0.0000 H   0  0
   12.9400    2.9650    0.0000 H   0  0
   12.1220    3.2790    0.0000 H   0  0
   11.1780    3.7220    0.0000 H   0  0
   11.3000    4.5900    0.0000 H   0  0
   10.4320    4.7120    0.0000 H   0  0
    9.5260    4.6710    0.0000 H   0  0
    9.0580    5.3160    0.0000 H   0  0
   12.6680    0.7080    0.0000 H   0  0
   13.2880    1.3280    0.0000 H   0  0
   12.6680    1.9480    0.0000 H   0  0
    4.2220    3.3230    0.0000 H   0  0
    3.4860    3.8010    0.0000 H   0  0
    3.0090    3.0650    0.0000 H   0  0
    4.4070   -1.0840    0.0000 H   0  0
    3.5600   -1.3110    0.0000 H   0  0
    3.7870   -2.1580    0.0000 H   0  0
    8.0980   -3.3110    0.0000 H   0  0
    2.0000    2.4620    0.0000 H   0  0
    9.5390    4.9510    0.0000 H   0  0
   12.1480    3.7290    0.0000 H   0  0
    4.6530   -4.5840    0.0000 H   0  0
    4.4260   -5.4310    0.0000 H   0  0
    5.2730   -5.6580    0.0000 H   0  0
    6.3850   -5.6580    0.0000 H   0  0
    7.2320   -5.4310    0.0000 H   0  0
    7.0050   -4.5840    0.0000 H   0  0
    8.2460    5.6870    0.0000 H   0  0
    7.4280    5.3730    0.0000 H   0  0
    7.7420    4.5540    0.0000 H   0  0
    1.4110   -0.3980    0.0000 H   0  0
    1.8090   -1.1800    0.0000 H   0  0
    2.5900   -0.7820    0.0000 H   0  0
 15  1  1  6
 22  1  1  1
 18  2  1  6
 24  2  1  1
 17  3  1  1
  3 82  1  0
  4 22  1  0
  4 37  1  0
  5 24  1  0
  5 36  1  0
  6 38  1  0
  6 40  1  0
 26  7  1  1
  7 52  1  0
 27  8  1  6
  8109  1  0
 31  9  1  1
  9110  1  0
 33 10  1  1
 10111  1  0
 35 11  1  6
 11112  1  0
 12 40  2  0
 13 28  1  0
 13 32  1  0
 13 46  1  0
 29 14  1  1
 14 49  1  0
 14 50  1  0
 15 16  1  0
 15 17  1  0
 15 53  1  1
 16 18  1  0
 16 23  1  1
 16 54  1  6
 17 19  1  0
 17 25  1  6
 18 21  1  0
 18 55  1  1
 19 20  1  0
 19 56  1  0
 19 57  1  0
 20 28  1  0
 20 39  1  6
 20 58  1  1
 21 40  1  0
 21 41  1  1
 21 59  1  6
 22 27  1  0
 22 60  1  6
 23 61  1  0
 23 62  1  0
 23 63  1  0
 24 30  1  0
 24 64  1  6
 25 65  1  0
 25 66  1  0
 25 67  1  0
 26 30  1  0
 26 31  1  0
 26 42  1  6
 27 29  1  0
 27 68  1  1
 28 69  1  0
 28 70  1  0
 29 34  1  0
 29 71  1  6
 30 72  1  0
 30 73  1  0
 31 36  1  0
 31 74  1  6
 32 35  1  0
 32 43  1  1
 32 75  1  6
 33 35  1  0
 33 38  1  0
 33 44  1  6
 34 37  1  0
 34 76  1  0
 34 77  1  0
 35 78  1  1
 36 47  1  6
 36 79  1  1
 37 48  1  1
 37 80  1  6
 38 45  1  6
 38 81  1  1
 39 83  1  0
 39 84  1  0
 39 85  1  0
 41 86  1  0
 41 87  1  0
 41 88  1  0
 42 89  1  0
 42 90  1  0
 42 91  1  0
 43 92  1  0
 43 93  1  0
 43 94  1  0
 44 95  1  0
 44 96  1  0
 44 97  1  0
 45 51  1  0
 45 98  1  0
 45 99  1  0
 46100  1  0
 46101  1  0
 46102  1  0
 47103  1  0
 47104  1  0
 47105  1  0
 48106  1  0
 48107  1  0
 48108  1  0
 49113  1  0
 49114  1  0
 49115  1  0
 50116  1  0
 50117  1  0
 50118  1  0
 51119  1  0
 51120  1  0
 51121  1  0
 52122  1  0
 52123  1  0
 52124  1  0
M  END
> <Name>
447043

> <PUBCHEM_COMPOUND_CID>
447043

> <Toxicity>
0

> <Data Set>
TrainingSet

$$$$
5742832
  SciTegic12242523262D

 45 46  0  0  1  0            999 V2000
    3.3330    3.2100    0.0000 S   0  0
    9.8240    1.8260    0.0000 S   0  0
    5.7440    3.3370    0.0000 O   0  0
    2.5900    3.8790    0.0000 O   0  0
    2.6640    2.4670    0.0000 O   0  0
    4.0020    3.9530    0.0000 O   0  0
    7.0290    2.2130    0.0000 O   0  0
    6.4050   -0.7220    0.0000 O   0  0
    6.7330   -3.3470    0.0000 O   0  0
    5.0380   -2.9870    0.0000 O   0  0
    4.0760    2.5410    0.0000 N   0  0
    5.8700    0.9260    0.0000 N   0  0
    7.3560   -0.4120    0.0000 N   0  0
    9.3240    0.2870    0.0000 N   0  0
   11.0840    0.5660    0.0000 N   0  0
    4.1280    1.5420    0.0000 C   0  0  2  0  0  0
    5.1270    1.5950    0.0000 C   0  0  1  0  0  0
    5.0750    2.5940    0.0000 C   0  0
    3.4590    0.7990    0.0000 C   0  0
    6.8210    1.2350    0.0000 C   0  0
    7.5640    0.5660    0.0000 C   0  0
    6.1970   -1.7000    0.0000 C   0  0
    8.5150    0.8750    0.0000 C   0  0
    5.2190   -1.4920    0.0000 C   0  0
    7.1760   -1.9080    0.0000 C   0  0
    8.8240    1.8260    0.0000 C   0  0
    5.9900   -2.6780    0.0000 C   0  0
   10.1330    0.8750    0.0000 C   0  0
    3.5440    1.7500    0.0000 H   0  0
    5.6860    1.8620    0.0000 H   0  0
    2.9980    1.2140    0.0000 H   0  0
    3.0440    0.3390    0.0000 H   0  0
    3.9200    0.3840    0.0000 H   0  0
    5.7410    0.3190    0.0000 H   0  0
    2.0000    3.6880    0.0000 H   0  0
    5.3480   -0.8850    0.0000 H   0  0
    4.6130   -1.3630    0.0000 H   0  0
    5.0900   -2.0980    0.0000 H   0  0
    7.0470   -2.5140    0.0000 H   0  0
    7.7820   -2.0370    0.0000 H   0  0
    7.3040   -1.3010    0.0000 H   0  0
    8.4600    2.3270    0.0000 H   0  0
    6.6040   -3.9530    0.0000 H   0  0
   11.5450    0.9800    0.0000 H   0  0
   11.2130   -0.0410    0.0000 H   0  0
  1  4  1  0
  1  5  2  0
  1  6  2  0
  1 11  1  0
  2 26  1  0
  2 28  1  0
  3 18  2  0
  4 35  1  0
  7 20  2  0
  8 13  1  0
  8 22  1  0
  9 27  1  0
  9 43  1  0
 10 27  2  0
 11 16  1  0
 11 18  1  0
 17 12  1  1
 12 20  1  0
 12 34  1  0
 13 21  2  0
 14 23  1  0
 14 28  2  0
 15 28  1  0
 15 44  1  0
 15 45  1  0
 16 17  1  0
 16 19  1  6
 16 29  1  1
 17 18  1  0
 17 30  1  6
 19 31  1  0
 19 32  1  0
 19 33  1  0
 20 21  1  0
 21 23  1  0
 22 24  1  0
 22 25  1  0
 22 27  1  0
 23 26  2  0
 24 36  1  0
 24 37  1  0
 24 38  1  0
 25 39  1  0
 25 40  1  0
 25 41  1  0
 26 42  1  0
M  END
> <Name>
5742832

> <PUBCHEM_COMPOUND_CID>
5742832

> <Toxicity>
0

> <Data Set>
TrainingSet

$$$$
2284
  SciTegic12242523262D

 26 26  0  0  1  0            999 V2000
    4.2690   -3.3100    0.0000 Cl  0  0
    6.0010    2.6900    0.0000 O   0  0
    4.2690    2.6900    0.0000 O   0  0
    2.5370    0.6900    0.0000 N   0  0
    4.2690    0.6900    0.0000 C   0  0
    4.2690   -0.3100    0.0000 C   0  0
    5.1350    1.1900    0.0000 C   0  0
    3.4030    1.1900    0.0000 C   0  0
    3.4030   -0.8100    0.0000 C   0  0
    5.1350   -0.8100    0.0000 C   0  0
    5.1350    2.1900    0.0000 C   0  0
    3.4030   -1.8100    0.0000 C   0  0
    5.1350   -1.8100    0.0000 C   0  0
    4.2690   -2.3100    0.0000 C   0  0
    4.8060    0.3800    0.0000 H   0  0
    5.3470    0.6070    0.0000 H   0  0
    5.7460    1.2980    0.0000 H   0  0
    3.8020    1.6650    0.0000 H   0  0
    3.0040    1.6650    0.0000 H   0  0
    2.8660   -0.5000    0.0000 H   0  0
    5.6720   -0.5000    0.0000 H   0  0
    2.0000    1.0000    0.0000 H   0  0
    2.5370    0.0700    0.0000 H   0  0
    2.8660   -2.1200    0.0000 H   0  0
    5.6720   -2.1200    0.0000 H   0  0
    6.0010    3.3100    0.0000 H   0  0
  1 14  1  0
  2 11  1  0
  2 26  1  0
  3 11  2  0
  4  8  1  0
  4 22  1  0
  4 23  1  0
  5  6  1  0
  5  7  1  0
  5  8  1  0
  5 15  1  0
  6  9  2  0
  6 10  1  0
  7 11  1  0
  7 16  1  0
  7 17  1  0
  8 18  1  0
  8 19  1  0
  9 12  1  0
  9 20  1  0
 10 13  2  0
 10 21  1  0
 12 14  2  0
 12 24  1  0
 13 14  1  0
 13 25  1  0
M  END
> <Name>
2284

> <PUBCHEM_COMPOUND_CID>
2284

> <Toxicity>
0

> <Data Set>
TrainingSet

$$$$
44205240
  SciTegic12242523262D

 43 46  0  0  0  0            999 V2000
    3.3460    1.9600    0.0000 S   0  0
    3.5020    2.9480    0.0000 O   0  0
    3.1900    0.9720    0.0000 O   0  0
    4.3340    1.8040    0.0000 N   0  0
    6.3180    0.7740    0.0000 N   0  0
    7.3180    0.7740    0.0000 N   0  0
    6.3300    4.1590    0.0000 N   0  0
    5.9520   -2.2650    0.0000 N   0  0
    8.6310   -3.5700    0.0000 N   0  0
    6.8180   -3.7650    0.0000 N   0  0
    5.7310    1.5820    0.0000 C   0  0
    4.9220    0.9950    0.0000 C   0  0
    5.1430    2.3920    0.0000 C   0  0
    6.5400    2.1700    0.0000 C   0  0
    2.3580    2.1170    0.0000 C   0  0
    6.0090   -0.1780    0.0000 C   0  0
    6.8180   -0.7650    0.0000 C   0  0
    6.4350    3.1650    0.0000 C   0  0
    7.6270   -0.1780    0.0000 C   0  0
    2.0000    3.0500    0.0000 C   0  0
    6.8180   -1.7650    0.0000 C   0  0
    7.6840   -2.2650    0.0000 C   0  0
    7.6840   -3.2650    0.0000 C   0  0
    8.6310   -1.9610    0.0000 C   0  0
    5.9520   -3.2650    0.0000 C   0  0
    9.2140   -2.7650    0.0000 C   0  0
    4.4200    0.6300    0.0000 H   0  0
    5.2860    0.4930    0.0000 H   0  0
    5.6440    2.7560    0.0000 H   0  0
    4.7780    2.8930    0.0000 H   0  0
    6.8110    1.6130    0.0000 H   0  0
    7.1360    2.3410    0.0000 H   0  0
    1.7500    1.9980    0.0000 H   0  0
    2.3690    1.4970    0.0000 H   0  0
    5.4200   -0.3690    0.0000 H   0  0
    8.2170   -0.3690    0.0000 H   0  0
    2.5790    3.2720    0.0000 H   0  0
    1.7780    3.6290    0.0000 H   0  0
    1.4210    2.8280    0.0000 H   0  0
    8.8230   -1.3710    0.0000 H   0  0
    8.8230   -4.1590    0.0000 H   0  0
    9.8340   -2.7650    0.0000 H   0  0
    5.4150   -3.5750    0.0000 H   0  0
  1  2  2  0
  1  3  2  0
  1  4  1  0
  1 15  1  0
  4 12  1  0
  4 13  1  0
  5  6  1  0
  5 11  1  0
  5 16  1  0
  6 19  2  0
  7 18  3  0
  8 21  1  0
  8 25  2  0
  9 23  1  0
  9 26  1  0
  9 41  1  0
 10 23  2  0
 10 25  1  0
 11 12  1  0
 11 13  1  0
 11 14  1  0
 12 27  1  0
 12 28  1  0
 13 29  1  0
 13 30  1  0
 14 18  1  0
 14 31  1  0
 14 32  1  0
 15 20  1  0
 15 33  1  0
 15 34  1  0
 16 17  2  0
 16 35  1  0
 17 19  1  0
 17 21  1  0
 19 36  1  0
 20 37  1  0
 20 38  1  0
 20 39  1  0
 21 22  2  0
 22 23  1  0
 22 24  1  0
 24 26  2  0
 24 40  1  0
 25 43  1  0
 26 42  1  0
M  END
> <Name>
44205240

> <PUBCHEM_COMPOUND_CID>
44205240

> <Toxicity>
1

> <Data Set>
TrainingSet

$$$$
20469
  SciTegic12242523262D

 57 60  0  0  1  0            999 V2000
    5.0180   -0.2290    0.0000 Cl  0  0
    8.0320    1.2610    0.0000 O   0  0
    4.7950    0.5050    0.0000 O   0  0
   10.0620    0.4870    0.0000 O   0  0
    9.8570    2.4770    0.0000 O   0  0
    2.0000   -3.0480    0.0000 O   0  0
    7.3930    0.0050    0.0000 C   0  0  1  0  0  0
    7.3930   -0.9950    0.0000 C   0  0  2  0  0  0
    6.5270   -1.4950    0.0000 C   0  0  1  0  0  0
    5.6610   -0.9950    0.0000 C   0  0  1  0  0  0
    8.3390    0.3090    0.0000 C   0  0  1  0  0  0
    8.3390   -1.3000    0.0000 C   0  0
    6.5270    0.5050    0.0000 C   0  0
    8.9230   -0.4950    0.0000 C   0  0  2  0  0  0
    5.6610    0.0050    0.0000 C   0  0  2  0  0  0
    4.7510   -1.5020    0.0000 C   0  0  1  0  0  0
    6.5430   -2.5370    0.0000 C   0  0
    7.3930    1.0050    0.0000 C   0  0
    5.6450   -3.0650    0.0000 C   0  0
    4.7430   -2.5440    0.0000 C   0  0
    9.1490    0.8960    0.0000 C   0  0
    9.9230   -0.4950    0.0000 C   0  0
    4.4160   -0.5600    0.0000 C   0  0
    3.8240   -0.9380    0.0000 C   0  0
    3.8080   -3.0940    0.0000 C   0  0
    9.0460    1.8900    0.0000 C   0  0
    2.8760   -1.4660    0.0000 C   0  0
    2.8680   -2.5510    0.0000 C   0  0
    7.4830   -1.8410    0.0000 H   0  0
    7.2660   -1.9150    0.0000 H   0  0
    8.0880   -1.8670    0.0000 H   0  0
    8.8770   -1.6090    0.0000 H   0  0
    6.9260    0.9800    0.0000 H   0  0
    6.1280    0.9800    0.0000 H   0  0
    9.2050   -1.0480    0.0000 H   0  0
    5.6610    0.6250    0.0000 H   0  0
    6.7610   -3.1170    0.0000 H   0  0
    7.1520   -2.4210    0.0000 H   0  0
    8.0130    1.0050    0.0000 H   0  0
    7.3930    1.6250    0.0000 H   0  0
    6.7730    1.0050    0.0000 H   0  0
    5.2480   -3.5410    0.0000 H   0  0
    6.0460   -3.5380    0.0000 H   0  0
    9.9230   -1.1150    0.0000 H   0  0
   10.5430   -0.4950    0.0000 H   0  0
    9.9230    0.1250    0.0000 H   0  0
    5.0000   -0.3520    0.0000 H   0  0
    4.2090    0.0240    0.0000 H   0  0
    3.8320   -0.7680    0.0000 H   0  0
    8.4480    1.7210    0.0000 H   0  0
    3.8360   -0.3180    0.0000 H   0  0
    4.7950    1.1250    0.0000 H   0  0
    3.8100   -3.7140    0.0000 H   0  0
    8.7760    2.4480    0.0000 H   0  0
    8.4500    1.7210    0.0000 H   0  0
    2.3430   -1.1500    0.0000 H   0  0
    9.7930    3.0940    0.0000 H   0  0
 10  1  1  6
 11  2  1  6
  2 50  1  0
 15  3  1  1
  3 52  1  0
  4 21  2  0
  5 26  1  0
  5 57  1  0
  6 28  2  0
  7  8  1  0
  7 11  1  0
  7 13  1  0
  7 18  1  1
  8  9  1  0
  8 12  1  0
  8 29  1  6
  9 10  1  0
  9 17  1  0
  9 30  1  1
 10 15  1  0
 10 16  1  0
 11 14  1  0
 11 21  1  1
 12 14  1  0
 12 31  1  0
 12 32  1  0
 13 15  1  0
 13 33  1  0
 13 34  1  0
 14 22  1  1
 14 35  1  6
 15 36  1  6
 16 20  1  0
 16 23  1  1
 16 24  1  0
 17 19  1  0
 17 37  1  0
 17 38  1  0
 18 39  1  0
 18 40  1  0
 18 41  1  0
 19 20  1  0
 19 42  1  0
 19 43  1  0
 20 25  2  0
 21 26  1  0
 22 44  1  0
 22 45  1  0
 22 46  1  0
 23 47  1  0
 23 48  1  0
 23 49  1  0
 24 27  2  0
 24 51  1  0
 25 28  1  0
 25 53  1  0
 26 54  1  0
 26 55  1  0
 27 28  1  0
 27 56  1  0
M  END
> <Name>
20469

> <PUBCHEM_COMPOUND_CID>
20469

> <Toxicity>
0

> <Data Set>
TrainingSet

$$$$
5362124
  SciTegic12242523262D

 59 61  0  0  1  0            999 V2000
    6.3100   -2.1930    0.0000 O   0  0
    3.5000    1.2220    0.0000 O   0  0
    3.5000   -0.5100    0.0000 O   0  0
    7.6210   -4.2640    0.0000 O   0  0
    6.4430   -2.9940    0.0000 O   0  0
    5.5000   -0.5100    0.0000 N   0  0
    7.9090   -1.6340    0.0000 N   0  0
    6.5000   -0.5100    0.0000 C   0  0  1  0  0  0
    6.9340    0.3900    0.0000 C   0  0
    7.9090    0.6130    0.0000 C   0  0
    5.0000    0.3560    0.0000 C   0  0  1  0  0  0
    6.9340   -1.4110    0.0000 C   0  0
    8.6910   -0.0100    0.0000 C   0  0
    8.6910   -1.0100    0.0000 C   0  0
    5.5000    1.2220    0.0000 C   0  0
    5.0000    2.0880    0.0000 C   0  0
    8.1310   -2.6090    0.0000 C   0  0
    4.0000    0.3560    0.0000 C   0  0
    9.5850    0.5240    0.0000 C   0  0
    9.5850   -1.5450    0.0000 C   0  0
    5.5000    2.9540    0.0000 C   0  0
   10.4910    0.0100    0.0000 C   0  0
   10.4910   -1.0310    0.0000 C   0  0
    7.3980   -3.2890    0.0000 C   0  0
    6.5000    2.9540    0.0000 C   0  0
    5.0000    3.8200    0.0000 C   0  0
    2.5000    1.2220    0.0000 C   0  0
    7.0000    3.8200    0.0000 C   0  0
    5.5000    4.6860    0.0000 C   0  0
    6.5000    4.6860    0.0000 C   0  0
    2.0000    2.0880    0.0000 C   0  0
    6.1700    0.0140    0.0000 H   0  0
    6.9340    1.0100    0.0000 H   0  0
    6.3290    0.5280    0.0000 H   0  0
    8.3940    1.0000    0.0000 H   0  0
    7.6400    1.1720    0.0000 H   0  0
    4.6900   -0.1810    0.0000 H   0  0
    5.1900   -1.0470    0.0000 H   0  0
    5.9750    0.8230    0.0000 H   0  0
    5.9750    1.6200    0.0000 H   0  0
    4.5250    2.4860    0.0000 H   0  0
    4.5250    1.6890    0.0000 H   0  0
    8.4680   -3.1300    0.0000 H   0  0
    8.7030   -2.3680    0.0000 H   0  0
    9.5770    1.1440    0.0000 H   0  0
    9.5770   -2.1650    0.0000 H   0  0
   11.0260    0.3220    0.0000 H   0  0
   11.0260   -1.3430    0.0000 H   0  0
    6.8100    2.4170    0.0000 H   0  0
    4.3800    3.8200    0.0000 H   0  0
    1.9170    1.0100    0.0000 H   0  0
    2.6080    0.6110    0.0000 H   0  0
    7.6200    3.8200    0.0000 H   0  0
    5.1900    5.2230    0.0000 H   0  0
    6.8100    5.2230    0.0000 H   0  0
    2.5370    2.3980    0.0000 H   0  0
    1.6900    2.6250    0.0000 H   0  0
    1.4630    1.7780    0.0000 H   0  0
    7.1660   -4.6860    0.0000 H   0  0
  1 12  2  0
  2 18  1  0
  2 27  1  0
  3 18  2  0
  4 24  1  0
  4 59  1  0
  5 24  2  0
  8  6  1  1
  6 11  1  0
  6 38  1  0
  7 12  1  0
  7 14  1  0
  7 17  1  0
  8  9  1  0
  8 12  1  0
  8 32  1  6
  9 10  1  0
  9 33  1  0
  9 34  1  0
 10 13  1  0
 10 35  1  0
 10 36  1  0
 11 15  1  0
 11 18  1  6
 11 37  1  1
 13 14  1  0
 13 19  2  0
 14 20  2  0
 15 16  1  0
 15 39  1  0
 15 40  1  0
 16 21  1  0
 16 41  1  0
 16 42  1  0
 17 24  1  0
 17 43  1  0
 17 44  1  0
 19 22  1  0
 19 45  1  0
 20 23  1  0
 20 46  1  0
 21 25  2  0
 21 26  1  0
 22 23  2  0
 22 47  1  0
 23 48  1  0
 25 28  1  0
 25 49  1  0
 26 29  2  0
 26 50  1  0
 27 31  1  0
 27 51  1  0
 27 52  1  0
 28 30  2  0
 28 53  1  0
 29 30  1  0
 29 54  1  0
 30 55  1  0
 31 56  1  0
 31 57  1  0
 31 58  1  0
M  END
> <Name>
5362124

> <PUBCHEM_COMPOUND_CID>
5362124

> <Toxicity>
0

> <Data Set>
TestSet

$$$$
2315
  SciTegic12242523262D

 41 43  0  0  1  0            999 V2000
    6.5570   -1.6800    0.0000 S   0  0
    3.2510   -1.9700    0.0000 S   0  0
    2.6110    1.3780    0.0000 F   0  0
    4.0190    1.2490    0.0000 F   0  0
    2.4820   -0.0310    0.0000 F   0  0
    7.0570   -2.5460    0.0000 O   0  0
    6.0570   -2.5460    0.0000 O   0  0
    4.0200   -2.6090    0.0000 O   0  0
    2.4820   -1.3300    0.0000 O   0  0
    7.4230   -1.1800    0.0000 N   0  0
    6.5570    0.3200    0.0000 N   0  0
    2.6110   -2.7380    0.0000 N   0  0
    7.4230   -0.1800    0.0000 C   0  0
    5.6910   -1.1800    0.0000 C   0  0
    5.6910   -0.1800    0.0000 C   0  0
    8.2890    0.3200    0.0000 C   0  0
    4.7970   -1.7150    0.0000 C   0  0
    4.7970    0.3540    0.0000 C   0  0
    3.8910   -1.2010    0.0000 C   0  0
    3.8910   -0.1590    0.0000 C   0  0
    8.2890    1.3200    0.0000 C   0  0
    3.2510    0.6090    0.0000 C   0  0
    9.1550    1.8200    0.0000 C   0  0
    7.4230    1.8200    0.0000 C   0  0
    9.1550    2.8200    0.0000 C   0  0
    7.4230    2.8200    0.0000 C   0  0
    8.2890    3.3200    0.0000 C   0  0
    7.4230    0.4400    0.0000 H   0  0
    7.9600   -1.4900    0.0000 H   0  0
    6.5570    0.9400    0.0000 H   0  0
    8.5010   -0.2630    0.0000 H   0  0
    8.8990    0.4280    0.0000 H   0  0
    4.8040   -2.3350    0.0000 H   0  0
    4.8040    0.9740    0.0000 H   0  0
    9.6920    1.5100    0.0000 H   0  0
    6.8860    1.5100    0.0000 H   0  0
    2.8250   -3.3200    0.0000 H   0  0
    2.0000   -2.6330    0.0000 H   0  0
    9.6920    3.1300    0.0000 H   0  0
    6.8860    3.1300    0.0000 H   0  0
    8.2890    3.9400    0.0000 H   0  0
  1  6  2  0
  1  7  2  0
  1 10  1  0
  1 14  1  0
  2  8  2  0
  2  9  2  0
  2 12  1  0
  2 19  1  0
  3 22  1  0
  4 22  1  0
  5 22  1  0
 10 13  1  0
 10 29  1  0
 11 13  1  0
 11 15  1  0
 11 30  1  0
 12 37  1  0
 12 38  1  0
 13 16  1  0
 13 28  1  0
 14 15  2  0
 14 17  1  0
 15 18  1  0
 16 21  1  0
 16 31  1  0
 16 32  1  0
 17 19  2  0
 17 33  1  0
 18 20  2  0
 18 34  1  0
 19 20  1  0
 20 22  1  0
 21 23  2  0
 21 24  1  0
 23 25  1  0
 23 35  1  0
 24 26  2  0
 24 36  1  0
 25 27  2  0
 25 39  1  0
 26 27  1  0
 26 40  1  0
 27 41  1  0
M  END
> <Name>
2315

> <PUBCHEM_COMPOUND_CID>
2315

> <Toxicity>
1

> <Data Set>
TrainingSet

$$$$
2337
  SciTegic12242523262D

 23 23  0  0  0  0            999 V2000
    3.7320    1.6550    0.0000 O   0  0
    2.0000    1.6550    0.0000 O   0  0
    2.8660   -2.8450    0.0000 N   0  0
    2.8660    0.1550    0.0000 C   0  0
    3.7320   -0.3450    0.0000 C   0  0
    2.0000   -0.3450    0.0000 C   0  0
    2.8660   -1.8450    0.0000 C   0  0
    3.7320   -1.3450    0.0000 C   0  0
    2.0000   -1.3450    0.0000 C   0  0
    2.8660    1.1550    0.0000 C   0  0
    3.7320    2.6550    0.0000 C   0  0
    4.5980    3.1550    0.0000 C   0  0
    4.2690   -0.0350    0.0000 H   0  0
    1.4630   -0.0350    0.0000 H   0  0
    4.2690   -1.6550    0.0000 H   0  0
    1.4630   -1.6550    0.0000 H   0  0
    3.5200    3.2380    0.0000 H   0  0
    3.1220    2.5470    0.0000 H   0  0
    4.9080    2.6180    0.0000 H   0  0
    5.1350    3.4650    0.0000 H   0  0
    4.2880    3.6920    0.0000 H   0  0
    2.3290   -3.1550    0.0000 H   0  0
    3.4030   -3.1550    0.0000 H   0  0
  1 10  1  0
  1 11  1  0
  2 10  2  0
  3  7  1  0
  3 22  1  0
  3 23  1  0
  4  5  2  0
  4  6  1  0
  4 10  1  0
  5  8  1  0
  5 13  1  0
  6  9  2  0
  6 14  1  0
  7  8  2  0
  7  9  1  0
  8 15  1  0
  9 16  1  0
 11 12  1  0
 11 17  1  0
 11 18  1  0
 12 19  1  0
 12 20  1  0
 12 21  1  0
M  END
> <Name>
2337

> <PUBCHEM_COMPOUND_CID>
2337

> <Toxicity>
0

> <Data Set>
TrainingSet

$$$$
7699
  SciTegic12242523262D

 95 95  0  0  0  0            999 V2000
    9.7940    2.2500    0.0000 O   0  0
   10.6600    4.7500    0.0000 O   0  0
    8.0620    0.2500    0.0000 O   0  0
   12.3920    6.7500    0.0000 O   0  0
    7.1960   -2.2500    0.0000 O   0  0
    5.4640   -4.2500    0.0000 O   0  0
    4.5980   -6.7500    0.0000 O   0  0
   13.2580    9.2500    0.0000 O   0  0
   14.9900   11.2500    0.0000 O   0  0
    2.8660   -6.7500    0.0000 O   0  0
   15.8560   13.7500    0.0000 O   0  0
    3.7320  -11.2500    0.0000 N   0  0
    2.8660  -12.7500    0.0000 C   0  0
    2.8660  -11.7500    0.0000 C   0  0
    2.0000  -13.2500    0.0000 C   0  0
    3.7320  -10.2500    0.0000 C   0  0
    2.0000  -14.2500    0.0000 C   0  0
    4.5980   -9.7500    0.0000 C   0  0
    2.8660   -9.7500    0.0000 C   0  0
    3.7320   -8.2500    0.0000 C   0  0
    4.5980   -8.7500    0.0000 C   0  0
    2.8660   -8.7500    0.0000 C   0  0
    9.7940    3.2500    0.0000 C   0  0
   10.6600    3.7500    0.0000 C   0  0
    8.9280    1.7500    0.0000 C   0  0
    8.9280    0.7500    0.0000 C   0  0
   11.5260    5.2500    0.0000 C   0  0
   11.5260    6.2500    0.0000 C   0  0
    8.0620   -0.7500    0.0000 C   0  0
    7.1960   -1.2500    0.0000 C   0  0
   12.3920    7.7500    0.0000 C   0  0
    6.3300   -2.7500    0.0000 C   0  0
    6.3300   -3.7500    0.0000 C   0  0
   13.2580    8.2500    0.0000 C   0  0
    3.7320   -7.2500    0.0000 C   0  0
    5.4640   -5.2500    0.0000 C   0  0
    4.5980   -5.7500    0.0000 C   0  0
   14.1240    9.7500    0.0000 C   0  0
   14.1240   10.7500    0.0000 C   0  0
   14.9900   12.2500    0.0000 C   0  0
   15.8560   12.7500    0.0000 C   0  0
   16.7220   14.2500    0.0000 C   0  0
    3.0780  -13.3330    0.0000 H   0  0
    3.4770  -12.6420    0.0000 H   0  0
    2.6540  -11.1670    0.0000 H   0  0
    2.2550  -11.8580    0.0000 H   0  0
    1.7880  -12.6670    0.0000 H   0  0
    1.3890  -13.3580    0.0000 H   0  0
    4.2690  -11.5600    0.0000 H   0  0
    1.3800  -14.2500    0.0000 H   0  0
    2.0000  -14.8700    0.0000 H   0  0
    2.6200  -14.2500    0.0000 H   0  0
    5.1350  -10.0600    0.0000 H   0  0
    2.3290  -10.0600    0.0000 H   0  0
    5.1350   -8.4400    0.0000 H   0  0
    2.3290   -8.4400    0.0000 H   0  0
    9.5820    3.8330    0.0000 H   0  0
    9.1840    3.1420    0.0000 H   0  0
   10.8720    3.1670    0.0000 H   0  0
   11.2710    3.8580    0.0000 H   0  0
    8.7160    2.3330    0.0000 H   0  0
    8.3180    1.6420    0.0000 H   0  0
    9.1400    0.1670    0.0000 H   0  0
    9.5390    0.8580    0.0000 H   0  0
   11.7380    4.6670    0.0000 H   0  0
   12.1370    5.3580    0.0000 H   0  0
   11.3140    6.8330    0.0000 H   0  0
   10.9160    6.1420    0.0000 H   0  0
    8.2740   -1.3330    0.0000 H   0  0
    8.6730   -0.6420    0.0000 H   0  0
    6.9840   -0.6670    0.0000 H   0  0
    6.5860   -1.3580    0.0000 H   0  0
   12.1800    8.3330    0.0000 H   0  0
   11.7820    7.6420    0.0000 H   0  0
    6.1180   -2.1670    0.0000 H   0  0
    5.7200   -2.8580    0.0000 H   0  0
    6.5420   -4.3330    0.0000 H   0  0
    6.9410   -3.6420    0.0000 H   0  0
   13.4700    7.6670    0.0000 H   0  0
   13.8690    8.3580    0.0000 H   0  0
    5.6760   -5.8330    0.0000 H   0  0
    6.0750   -5.1420    0.0000 H   0  0
    4.3860   -5.1670    0.0000 H   0  0
    3.9880   -5.8580    0.0000 H   0  0
   14.3360    9.1670    0.0000 H   0  0
   14.7350    9.8580    0.0000 H   0  0
   13.9120   11.3330    0.0000 H   0  0
   13.5140   10.6420    0.0000 H   0  0
   14.7780   12.8330    0.0000 H   0  0
   14.3800   12.1420    0.0000 H   0  0
   16.0680   12.1670    0.0000 H   0  0
   16.4670   12.8580    0.0000 H   0  0
   17.0320   13.7130    0.0000 H   0  0
   17.2590   14.5600    0.0000 H   0  0
   16.4120   14.7870    0.0000 H   0  0
  1 23  1  0
  1 25  1  0
  2 24  1  0
  2 27  1  0
  3 26  1  0
  3 29  1  0
  4 28  1  0
  4 31  1  0
  5 30  1  0
  5 32  1  0
  6 33  1  0
  6 36  1  0
  7 35  1  0
  7 37  1  0
  8 34  1  0
  8 38  1  0
  9 39  1  0
  9 40  1  0
 10 35  2  0
 11 41  1  0
 11 42  1  0
 12 14  1  0
 12 16  1  0
 12 49  1  0
 13 14  1  0
 13 15  1  0
 13 43  1  0
 13 44  1  0
 14 45  1  0
 14 46  1  0
 15 17  1  0
 15 47  1  0
 15 48  1  0
 16 18  2  0
 16 19  1  0
 17 50  1  0
 17 51  1  0
 17 52  1  0
 18 21  1  0
 18 53  1  0
 19 22  2  0
 19 54  1  0
 20 21  2  0
 20 22  1  0
 20 35  1  0
 21 55  1  0
 22 56  1  0
 23 24  1  0
 23 57  1  0
 23 58  1  0
 24 59  1  0
 24 60  1  0
 25 26  1  0
 25 61  1  0
 25 62  1  0
 26 63  1  0
 26 64  1  0
 27 28  1  0
 27 65  1  0
 27 66  1  0
 28 67  1  0
 28 68  1  0
 29 30  1  0
 29 69  1  0
 29 70  1  0
 30 71  1  0
 30 72  1  0
 31 34  1  0
 31 73  1  0
 31 74  1  0
 32 33  1  0
 32 75  1  0
 32 76  1  0
 33 77  1  0
 33 78  1  0
 34 79  1  0
 34 80  1  0
 36 37  1  0
 36 81  1  0
 36 82  1  0
 37 83  1  0
 37 84  1  0
 38 39  1  0
 38 85  1  0
 38 86  1  0
 39 87  1  0
 39 88  1  0
 40 41  1  0
 40 89  1  0
 40 90  1  0
 41 91  1  0
 41 92  1  0
 42 93  1  0
 42 94  1  0
 42 95  1  0
M  END
> <Name>
7699

> <PUBCHEM_COMPOUND_CID>
7699

> <Toxicity>
1

> <Data Set>
TestSet

$$$$
7187
  SciTegic12242523262D

 28 29  0  0  0  0            999 V2000
    3.7320    0.5000    0.0000 O   0  0
    3.7320   -0.5000    0.0000 O   0  0
    5.4640    0.5000    0.0000 O   0  0
    2.0000   -0.5000    0.0000 O   0  0
    4.5980    2.0000    0.0000 C   0  0
    2.8660   -2.0000    0.0000 C   0  0
    3.7320    2.5000    0.0000 C   0  0
    2.0000   -2.5000    0.0000 C   0  0
    5.4640    2.5000    0.0000 C   0  0
    3.7320   -2.5000    0.0000 C   0  0
    3.7320    3.5000    0.0000 C   0  0
    2.0000   -3.5000    0.0000 C   0  0
    5.4640    3.5000    0.0000 C   0  0
    3.7320   -3.5000    0.0000 C   0  0
    4.5980    4.0000    0.0000 C   0  0
    2.8660   -4.0000    0.0000 C   0  0
    4.5980    1.0000    0.0000 C   0  0
    2.8660   -1.0000    0.0000 C   0  0
    3.1950    2.1900    0.0000 H   0  0
    1.4630   -2.1900    0.0000 H   0  0
    6.0010    2.1900    0.0000 H   0  0
    4.2690   -2.1900    0.0000 H   0  0
    3.1950    3.8100    0.0000 H   0  0
    1.4630   -3.8100    0.0000 H   0  0
    6.0010    3.8100    0.0000 H   0  0
    4.2690   -3.8100    0.0000 H   0  0
    4.5980    4.6200    0.0000 H   0  0
    2.8660   -4.6200    0.0000 H   0  0
  1  2  1  0
  1 17  1  0
  2 18  1  0
  3 17  2  0
  4 18  2  0
  5  7  2  0
  5  9  1  0
  5 17  1  0
  6  8  2  0
  6 10  1  0
  6 18  1  0
  7 11  1  0
  7 19  1  0
  8 12  1  0
  8 20  1  0
  9 13  2  0
  9 21  1  0
 10 14  2  0
 10 22  1  0
 11 15  2  0
 11 23  1  0
 12 16  2  0
 12 24  1  0
 13 15  1  0
 13 25  1  0
 14 16  1  0
 14 26  1  0
 15 27  1  0
 16 28  1  0
M  END
> <Name>
7187

> <PUBCHEM_COMPOUND_CID>
7187

> <Toxicity>
0

> <Data Set>
TrainingSet

$$$$
2366
  SciTegic12242523262D

 22 22  0  0  0  0            999 V2000
    2.8660   -0.6900    0.0000 N   0  0
    6.3300   -0.6900    0.0000 N   0  0
    4.5980   -0.6900    0.0000 C   0  0
    3.7320   -0.1900    0.0000 C   0  0
    5.4640   -0.1900    0.0000 C   0  0
    5.4640    0.8100    0.0000 C   0  0
    2.0000   -0.1900    0.0000 C   0  0
    6.3300    1.3100    0.0000 C   0  0
    7.1960   -0.1900    0.0000 C   0  0
    7.1960    0.8100    0.0000 C   0  0
    4.2000   -1.1650    0.0000 H   0  0
    4.9970   -1.1650    0.0000 H   0  0
    4.1310    0.2850    0.0000 H   0  0
    3.3340    0.2850    0.0000 H   0  0
    2.8660   -1.3100    0.0000 H   0  0
    4.9270    1.1200    0.0000 H   0  0
    2.3100    0.3470    0.0000 H   0  0
    1.4630    0.1200    0.0000 H   0  0
    1.6900   -0.7270    0.0000 H   0  0
    6.3300    1.9300    0.0000 H   0  0
    7.7330   -0.5000    0.0000 H   0  0
    7.7330    1.1200    0.0000 H   0  0
  1  4  1  0
  1  7  1  0
  1 15  1  0
  2  5  1  0
  2  9  2  0
  3  4  1  0
  3  5  1  0
  3 11  1  0
  3 12  1  0
  4 13  1  0
  4 14  1  0
  5  6  2  0
  6  8  1  0
  6 16  1  0
  7 17  1  0
  7 18  1  0
  7 19  1  0
  8 10  2  0
  8 20  1  0
  9 10  1  0
  9 21  1  0
 10 22  1  0
M  END
> <Name>
2366

> <PUBCHEM_COMPOUND_CID>
2366

> <Toxicity>
1

> <Data Set>
TrainingSet

$$$$
2370
  SciTegic12242523262D

 28 27  0  0  1  0            999 V2000
    5.4640    0.4400    0.0000 O   0  0
    6.3300   -1.0600    0.0000 O   0  0
    2.8660   -0.0600    0.0000 N   0  3
    7.1960    0.4400    0.0000 N   0  0
    3.7320    0.4400    0.0000 C   0  0
    4.5980   -0.0600    0.0000 C   0  0
    2.0000   -0.5600    0.0000 C   0  0
    2.3660    0.8060    0.0000 C   0  0
    3.3660   -0.9260    0.0000 C   0  0
    4.5980   -1.0600    0.0000 C   0  0
    6.3300   -0.0600    0.0000 C   0  0
    4.1310    0.9150    0.0000 H   0  0
    3.3340    0.9150    0.0000 H   0  0
    4.5980    0.5600    0.0000 H   0  0
    1.6900   -0.0230    0.0000 H   0  0
    1.4630   -0.8700    0.0000 H   0  0
    2.3100   -1.0970    0.0000 H   0  0
    2.9030    1.1160    0.0000 H   0  0
    2.0560    1.3430    0.0000 H   0  0
    1.8290    0.4960    0.0000 H   0  0
    2.8290   -1.2360    0.0000 H   0  0
    3.6760   -1.4630    0.0000 H   0  0
    3.9030   -0.6160    0.0000 H   0  0
    3.9780   -1.0600    0.0000 H   0  0
    4.5980   -1.6800    0.0000 H   0  0
    5.2180   -1.0600    0.0000 H   0  0
    7.7330    0.1300    0.0000 H   0  0
    7.1960    1.0600    0.0000 H   0  0
  1  6  1  0
  1 11  1  0
  2 11  2  0
  3  5  1  0
  3  7  1  0
  3  8  1  0
  3  9  1  0
  4 11  1  0
  4 27  1  0
  4 28  1  0
  5  6  1  0
  5 12  1  0
  5 13  1  0
  6 10  1  0
  6 14  1  0
  7 15  1  0
  7 16  1  0
  7 17  1  0
  8 18  1  0
  8 19  1  0
  8 20  1  0
  9 21  1  0
  9 22  1  0
  9 23  1  0
 10 24  1  0
 10 25  1  0
 10 26  1  0
M  CHG  1   3   1
M  END
> <Name>
2370

> <PUBCHEM_COMPOUND_CID>
2370

> <Toxicity>
1

> <Data Set>
TrainingSet

$$$$
25195624
  SciTegic12242523262D

 61 64  0  0  1  0            999 V2000
    5.9640   -0.2220    0.0000 Cl  0  0
    6.8300    4.2780    0.0000 O   0  0
    2.5000   -5.2220    0.0000 O   0  0
    4.2320    5.7780    0.0000 O   0  0
    4.2320    3.7780    0.0000 O   0  0
    5.9640    6.7780    0.0000 O   0  0
    8.5620    5.2780    0.0000 O   0  0
    4.2320   -3.2220    0.0000 O   0  0
    5.0980    5.2780    0.0000 C   0  0  2  0  0  0
    5.0980    4.2780    0.0000 C   0  0  2  0  0  0
    5.9640    5.7780    0.0000 C   0  0  1  0  0  0
    2.5000   -6.2220    0.0000 C   0  0
    5.9640    3.7780    0.0000 C   0  0  2  0  0  0
    6.8300    5.2780    0.0000 C   0  0  1  0  0  0
    2.0000   -7.0880    0.0000 C   0  0
    3.0000   -7.0880    0.0000 C   0  0
    5.9640    2.7780    0.0000 C   0  0
    7.6960    5.7780    0.0000 C   0  0
    5.0980    2.2780    0.0000 C   0  0
    6.8300    2.2780    0.0000 C   0  0
    3.3660   -4.7220    0.0000 C   0  0
    5.0980    1.2780    0.0000 C   0  0
    6.8300    1.2780    0.0000 C   0  0
    4.2320    0.7780    0.0000 C   0  0
    5.9640    0.7780    0.0000 C   0  0
    3.3660   -3.7220    0.0000 C   0  0
    4.2320   -0.2220    0.0000 C   0  0
    4.2320   -2.2220    0.0000 C   0  0
    3.3660   -0.7220    0.0000 C   0  0
    5.0980   -0.7220    0.0000 C   0  0
    3.3660   -1.7220    0.0000 C   0  0
    5.0980   -1.7220    0.0000 C   0  0
    5.0980    5.8980    0.0000 H   0  0
    5.0980    3.6580    0.0000 H   0  0
    6.5010    6.0880    0.0000 H   0  0
    3.0990   -6.0620    0.0000 H   0  0
    6.5010    3.4680    0.0000 H   0  0
    7.3670    4.9680    0.0000 H   0  0
    1.4170   -6.8760    0.0000 H   0  0
    1.8920   -7.6990    0.0000 H   0  0
    3.1080   -7.6990    0.0000 H   0  0
    3.5830   -6.8760    0.0000 H   0  0
    8.0950    6.2530    0.0000 H   0  0
    7.2980    6.2530    0.0000 H   0  0
    4.2320    6.3980    0.0000 H   0  0
    3.6950    4.0880    0.0000 H   0  0
    6.5010    7.0880    0.0000 H   0  0
    4.5610    2.5880    0.0000 H   0  0
    7.3670    2.5880    0.0000 H   0  0
    3.5780   -5.3050    0.0000 H   0  0
    3.9770   -4.6140    0.0000 H   0  0
    7.3670    0.9680    0.0000 H   0  0
    4.0200    1.3610    0.0000 H   0  0
    3.6220    0.6700    0.0000 H   0  0
    9.0990    5.5880    0.0000 H   0  0
    3.1540   -3.1390    0.0000 H   0  0
    2.7550   -3.8300    0.0000 H   0  0
    2.8290   -0.4120    0.0000 H   0  0
    5.6350   -0.4120    0.0000 H   0  0
    2.8290   -2.0320    0.0000 H   0  0
    5.6350   -2.0320    0.0000 H   0  0
  1 25  1  0
  2 13  1  0
  2 14  1  0
  3 12  1  0
  3 21  1  0
  9  4  1  1
  4 45  1  0
 10  5  1  6
  5 46  1  0
 11  6  1  6
  6 47  1  0
  7 18  1  0
  7 55  1  0
  8 26  1  0
  8 28  1  0
  9 10  1  0
  9 11  1  0
  9 33  1  6
 10 13  1  0
 10 34  1  1
 11 14  1  0
 11 35  1  1
 12 15  1  0
 12 16  1  0
 12 36  1  0
 13 17  1  1
 13 37  1  6
 14 18  1  1
 14 38  1  6
 15 16  1  0
 15 39  1  0
 15 40  1  0
 16 41  1  0
 16 42  1  0
 17 19  2  0
 17 20  1  0
 18 43  1  0
 18 44  1  0
 19 22  1  0
 19 48  1  0
 20 23  2  0
 20 49  1  0
 21 26  1  0
 21 50  1  0
 21 51  1  0
 22 24  1  0
 22 25  2  0
 23 25  1  0
 23 52  1  0
 24 27  1  0
 24 53  1  0
 24 54  1  0
 26 56  1  0
 26 57  1  0
 27 29  2  0
 27 30  1  0
 28 31  2  0
 28 32  1  0
 29 31  1  0
 29 58  1  0
 30 32  2  0
 30 59  1  0
 31 60  1  0
 32 61  1  0
M  END
> <Name>
25195624

> <PUBCHEM_COMPOUND_CID>
25195624

> <Toxicity>
1

> <Data Set>
TrainingSet

$$$$
171548
  SciTegic12242523262D

 32 33  0  0  1  0            999 V2000
    5.4760   -1.7330    0.0000 S   0  0
    9.5450   -1.7330    0.0000 O   0  0
    2.1930    2.5420    0.0000 O   0  0
    3.8390    3.0800    0.0000 O   0  0
    7.9570   -0.9240    0.0000 N   0  0
    7.9570   -2.5420    0.0000 N   0  0
    7.0060   -1.2330    0.0000 C   0  0  1  0  0  0
    7.0060   -2.2330    0.0000 C   0  0  2  0  0  0
    6.0600   -0.9280    0.0000 C   0  0  2  0  0  0
    6.0600   -2.5380    0.0000 C   0  0
    5.7500    0.0220    0.0000 C   0  0
    4.7710    0.2290    0.0000 C   0  0
    8.5450   -1.7330    0.0000 C   0  0
    4.4600    1.1790    0.0000 C   0  0
    3.4820    1.3850    0.0000 C   0  0
    3.1710    2.3360    0.0000 C   0  0
    7.0050   -0.3830    0.0000 H   0  0
    7.0050   -3.0830    0.0000 H   0  0
    5.4480   -0.8320    0.0000 H   0  0
    5.5230   -2.8470    0.0000 H   0  0
    6.3110   -3.1040    0.0000 H   0  0
    6.3630    0.1100    0.0000 H   0  0
    5.7700    0.6420    0.0000 H   0  0
    8.1490   -0.3340    0.0000 H   0  0
    8.1490   -3.1320    0.0000 H   0  0
    4.1570    0.1410    0.0000 H   0  0
    4.7500   -0.3910    0.0000 H   0  0
    5.0740    1.2660    0.0000 H   0  0
    4.4810    1.7990    0.0000 H   0  0
    2.8680    1.2980    0.0000 H   0  0
    3.4610    0.7660    0.0000 H   0  0
    2.0000    3.1320    0.0000 H   0  0
  1  9  1  0
  1 10  1  0
  2 13  2  0
  3 16  1  0
  3 32  1  0
  4 16  2  0
  5  7  1  0
  5 13  1  0
  5 24  1  0
  6  8  1  0
  6 13  1  0
  6 25  1  0
  7  8  1  0
  7  9  1  0
  7 17  1  6
  8 10  1  0
  8 18  1  6
  9 11  1  1
  9 19  1  6
 10 20  1  0
 10 21  1  0
 11 12  1  0
 11 22  1  0
 11 23  1  0
 12 14  1  0
 12 26  1  0
 12 27  1  0
 14 15  1  0
 14 28  1  0
 14 29  1  0
 15 16  1  0
 15 30  1  0
 15 31  1  0
M  END
> <Name>
171548

> <PUBCHEM_COMPOUND_CID>
171548

> <Toxicity>
0

> <Data Set>
TrainingSet

$$$$
2391
  SciTegic12242523262D

 46 48  0  0  0  0            999 V2000
    8.0620    3.0000    0.0000 O   0  0
    4.5980   -3.0000    0.0000 O   0  0
    7.1960    4.5000    0.0000 O   0  0
    2.8660   -3.0000    0.0000 O   0  0
    3.7320    2.5000    0.0000 N   0  0
    4.5980    1.0000    0.0000 C   0  0
    5.4640    1.5000    0.0000 C   0  0
    4.5980    0.0000    0.0000 C   0  0
    3.7320    1.5000    0.0000 C   0  0
    6.3300    1.0000    0.0000 C   0  0
    5.4640   -0.5000    0.0000 C   0  0
    5.4640    2.5000    0.0000 C   0  0
    3.7320   -0.5000    0.0000 C   0  0
    2.8660    1.0000    0.0000 C   0  0
    7.1960    1.5000    0.0000 C   0  0
    5.4640   -1.5000    0.0000 C   0  0
    6.3300    3.0000    0.0000 C   0  0
    3.7320   -1.5000    0.0000 C   0  0
    7.1960    2.5000    0.0000 C   0  0
    4.5980   -2.0000    0.0000 C   0  0
    2.0000    1.5000    0.0000 C   0  0
    2.8660    3.0000    0.0000 C   0  0
    2.0000    2.5000    0.0000 C   0  0
    8.0620    4.0000    0.0000 C   0  0
    3.7320   -3.5000    0.0000 C   0  0
    8.9280    4.5000    0.0000 C   0  0
    3.7320   -4.5000    0.0000 C   0  0
    4.5980    1.6200    0.0000 H   0  0
    6.3300    0.3800    0.0000 H   0  0
    6.0010   -0.1900    0.0000 H   0  0
    4.9270    2.8100    0.0000 H   0  0
    3.1950   -0.1900    0.0000 H   0  0
    2.8660    0.3800    0.0000 H   0  0
    7.7330    1.1900    0.0000 H   0  0
    6.0010   -1.8100    0.0000 H   0  0
    6.3300    3.6200    0.0000 H   0  0
    3.1950   -1.8100    0.0000 H   0  0
    1.4630    1.1900    0.0000 H   0  0
    2.8660    3.6200    0.0000 H   0  0
    1.4630    2.8100    0.0000 H   0  0
    9.2380    3.9630    0.0000 H   0  0
    9.4650    4.8100    0.0000 H   0  0
    8.6180    5.0370    0.0000 H   0  0
    3.1120   -4.5000    0.0000 H   0  0
    3.7320   -5.1200    0.0000 H   0  0
    4.3520   -4.5000    0.0000 H   0  0
  1 19  1  0
  1 24  1  0
  2 20  1  0
  2 25  1  0
  3 24  2  0
  4 25  2  0
  5  9  1  0
  5 22  2  0
  6  7  1  0
  6  8  1  0
  6  9  1  0
  6 28  1  0
  7 10  2  0
  7 12  1  0
  8 11  2  0
  8 13  1  0
  9 14  2  0
 10 15  1  0
 10 29  1  0
 11 16  1  0
 11 30  1  0
 12 17  2  0
 12 31  1  0
 13 18  2  0
 13 32  1  0
 14 21  1  0
 14 33  1  0
 15 19  2  0
 15 34  1  0
 16 20  2  0
 16 35  1  0
 17 19  1  0
 17 36  1  0
 18 20  1  0
 18 37  1  0
 21 23  2  0
 21 38  1  0
 22 23  1  0
 22 39  1  0
 23 40  1  0
 24 26  1  0
 25 27  1  0
 26 41  1  0
 26 42  1  0
 26 43  1  0
 27 44  1  0
 27 45  1  0
 27 46  1  0
M  END
> <Name>
2391

> <PUBCHEM_COMPOUND_CID>
2391

> <Toxicity>
0

> <Data Set>
TestSet

$$$$
10324367
  SciTegic12242523262D

 82 84  0  0  1  0            999 V2000
    6.6670    0.7210    0.0000 O   0  0
    5.8660   -0.3810    0.0000 O   0  0
    8.3650    3.9010    0.0000 O   0  0
    4.8660   -3.8450    0.0000 O   0  0
    9.9610    1.7910    0.0000 O   0  0
    7.3660   -1.2470    0.0000 N   0  0
    8.3140    1.2560    0.0000 N   0  0
    4.8660   -2.1130    0.0000 N   0  0
    3.3660   -2.9790    0.0000 N   0  0
   10.3210    3.4860    0.0000 N   0  0
    8.9050   -0.7470    0.0000 C   0  0  1  0  0  0
    9.7710   -1.2470    0.0000 C   0  0
    8.9050   -1.7470    0.0000 C   0  0  1  0  0  0
    7.9540   -0.4380    0.0000 C   0  0  1  0  0  0
    7.9540   -2.0560    0.0000 C   0  0
   10.2710   -2.1130    0.0000 C   0  0
   10.2710   -0.3810    0.0000 C   0  0
    7.6450    0.5130    0.0000 C   0  0
    6.3660   -1.2470    0.0000 C   0  0
    5.8660   -2.1130    0.0000 C   0  0  2  0  0  0
    6.3660   -2.9790    0.0000 C   0  0
    8.0050    2.2070    0.0000 C   0  0
    7.0270    2.4150    0.0000 C   0  0
    6.7180    3.3660    0.0000 C   0  0
    6.8660   -3.8450    0.0000 C   0  0
    5.5000   -3.4790    0.0000 C   0  0
    7.2320   -2.4790    0.0000 C   0  0
    8.6740    2.9500    0.0000 C   0  0
    7.1720    4.2570    0.0000 C   0  0
    5.8270    3.8200    0.0000 C   0  0
    6.2810    4.7110    0.0000 C   0  0
    4.3660   -2.9790    0.0000 C   0  0
    9.6520    2.7420    0.0000 C   0  0
    2.8660   -3.8450    0.0000 C   0  0
    2.3660   -4.7110    0.0000 C   0  0
    2.0000   -3.3450    0.0000 C   0  0
    3.7320   -4.3450    0.0000 C   0  0
    9.2500    0.0300    0.0000 H   0  0
    9.2500   -2.5240    0.0000 H   0  0
    7.3410   -0.3410    0.0000 H   0  0
    7.4170   -2.3660    0.0000 H   0  0
    8.2060   -2.6220    0.0000 H   0  0
    9.7340   -2.4230    0.0000 H   0  0
   10.5810   -2.6500    0.0000 H   0  0
   10.8080   -1.8030    0.0000 H   0  0
   10.8080   -0.6910    0.0000 H   0  0
   10.5810    0.1560    0.0000 H   0  0
    9.7340   -0.0710    0.0000 H   0  0
    5.5560   -1.5760    0.0000 H   0  0
    8.9200    1.1270    0.0000 H   0  0
    8.6110    2.0780    0.0000 H   0  0
    4.5560   -1.5760    0.0000 H   0  0
    6.4130    2.3290    0.0000 H   0  0
    7.0050    1.7960    0.0000 H   0  0
    6.2460    2.9640    0.0000 H   0  0
    6.3290   -4.1550    0.0000 H   0  0
    7.1760   -4.3820    0.0000 H   0  0
    7.4030   -3.5350    0.0000 H   0  0
    5.1900   -2.9420    0.0000 H   0  0
    4.9630   -3.7890    0.0000 H   0  0
    5.8100   -4.0160    0.0000 H   0  0
    7.5420   -3.0160    0.0000 H   0  0
    7.7690   -2.1690    0.0000 H   0  0
    6.9220   -1.9420    0.0000 H   0  0
    7.7240    3.9760    0.0000 H   0  0
    7.4530    4.8100    0.0000 H   0  0
    5.2740    4.1020    0.0000 H   0  0
    5.5450    3.2680    0.0000 H   0  0
    6.5620    5.2640    0.0000 H   0  0
    5.7280    4.9930    0.0000 H   0  0
    3.0560   -2.4420    0.0000 H   0  0
   10.9280    3.3570    0.0000 H   0  0
   10.1300    4.0750    0.0000 H   0  0
    1.8290   -4.4010    0.0000 H   0  0
    2.0560   -5.2480    0.0000 H   0  0
    2.9030   -5.0210    0.0000 H   0  0
    2.3100   -2.8080    0.0000 H   0  0
    1.4630   -3.0350    0.0000 H   0  0
    1.6900   -3.8820    0.0000 H   0  0
    3.4220   -4.8820    0.0000 H   0  0
    4.2690   -4.6550    0.0000 H   0  0
    4.0420   -3.8080    0.0000 H   0  0
  1 18  2  0
  2 19  2  0
  3 28  2  0
  4 32  2  0
  5 33  2  0
  6 14  1  0
  6 15  1  0
  6 19  1  0
  7 18  1  0
  7 22  1  0
  7 50  1  0
  8 20  1  0
  8 32  1  0
  8 52  1  0
  9 32  1  0
  9 34  1  0
  9 71  1  0
 10 33  1  0
 10 72  1  0
 10 73  1  0
 11 12  1  0
 11 13  1  0
 11 14  1  0
 11 38  1  6
 12 13  1  0
 12 16  1  0
 12 17  1  0
 13 15  1  0
 13 39  1  6
 14 18  1  6
 14 40  1  1
 15 41  1  0
 15 42  1  0
 16 43  1  0
 16 44  1  0
 16 45  1  0
 17 46  1  0
 17 47  1  0
 17 48  1  0
 20 19  1  6
 20 21  1  0
 20 49  1  1
 21 25  1  0
 21 26  1  0
 21 27  1  0
 22 23  1  0
 22 28  1  0
 22 51  1  0
 23 24  1  0
 23 53  1  0
 23 54  1  0
 24 29  1  0
 24 30  1  0
 24 55  1  0
 25 56  1  0
 25 57  1  0
 25 58  1  0
 26 59  1  0
 26 60  1  0
 26 61  1  0
 27 62  1  0
 27 63  1  0
 27 64  1  0
 28 33  1  0
 29 31  1  0
 29 65  1  0
 29 66  1  0
 30 31  1  0
 30 67  1  0
 30 68  1  0
 31 69  1  0
 31 70  1  0
 34 35  1  0
 34 36  1  0
 34 37  1  0
 35 74  1  0
 35 75  1  0
 35 76  1  0
 36 77  1  0
 36 78  1  0
 36 79  1  0
 37 80  1  0
 37 81  1  0
 37 82  1  0
M  END
> <Name>
10324367

> <PUBCHEM_COMPOUND_CID>
10324367

> <Toxicity>
1

> <Data Set>
TrainingSet

$$$$
104865
  SciTegic12242523262D

 68 71  0  0  0  0            999 V2000
    7.1960    1.7220    0.0000 S   0  0
    6.6960    2.5880    0.0000 O   0  0
    7.6960    0.8560    0.0000 O   0  0
    4.5980    0.2220    0.0000 O   0  0
    4.5980   -1.7780    0.0000 O   0  0
    2.8660    1.2220    0.0000 O   0  0
    3.7320   -4.2780    0.0000 O   0  0
    6.3300    1.2220    0.0000 N   0  0
    7.1960   -0.2780    0.0000 N   0  0
    6.3300   -1.7780    0.0000 N   0  0
    8.9280   -1.2780    0.0000 N   0  0
    8.0620   -2.7780    0.0000 N   0  0
   10.6600    3.7220    0.0000 C   0  0
    9.7940    3.2220    0.0000 C   0  0
   11.5260    4.2220    0.0000 C   0  0
   10.1600    4.5880    0.0000 C   0  0
   11.1600    2.8560    0.0000 C   0  0
    9.7940    2.2220    0.0000 C   0  0
    8.9280    3.7220    0.0000 C   0  0
    8.0620    2.2220    0.0000 C   0  0
    8.9280    1.7220    0.0000 C   0  0
    8.0620    3.2220    0.0000 C   0  0
    6.3300    0.2220    0.0000 C   0  0
    5.4640   -0.2780    0.0000 C   0  0
    5.4640   -1.2780    0.0000 C   0  0
    7.1960   -1.2780    0.0000 C   0  0
    3.7320   -0.2780    0.0000 C   0  0
    8.0620   -1.7780    0.0000 C   0  0
    4.5980   -2.7780    0.0000 C   0  0
    2.8660    0.2220    0.0000 C   0  0
    3.7320   -1.2780    0.0000 C   0  0
    2.0000   -0.2780    0.0000 C   0  0
    3.7320   -3.2780    0.0000 C   0  0
    2.8660   -1.7780    0.0000 C   0  0
    2.0000   -1.2780    0.0000 C   0  0
    9.7940   -1.7780    0.0000 C   0  0
    8.9280   -3.2780    0.0000 C   0  0
    9.7940   -2.7780    0.0000 C   0  0
    2.0000    1.7220    0.0000 C   0  0
   11.8360    3.6850    0.0000 H   0  0
   12.0630    4.5320    0.0000 H   0  0
   11.2160    4.7590    0.0000 H   0  0
   10.6970    4.8980    0.0000 H   0  0
    9.8500    5.1250    0.0000 H   0  0
    9.6230    4.2780    0.0000 H   0  0
   10.6230    2.5460    0.0000 H   0  0
   11.4700    2.3190    0.0000 H   0  0
   11.6970    3.1660    0.0000 H   0  0
   10.3310    1.9120    0.0000 H   0  0
    8.9280    4.3420    0.0000 H   0  0
    8.9280    1.1020    0.0000 H   0  0
    7.5250    3.5320    0.0000 H   0  0
    5.7930    1.5320    0.0000 H   0  0
    4.8100   -3.3610    0.0000 H   0  0
    5.2090   -2.6700    0.0000 H   0  0
    4.2690   -1.5880    0.0000 H   0  0
    1.4630    0.0320    0.0000 H   0  0
    3.5200   -2.6950    0.0000 H   0  0
    3.1220   -3.3860    0.0000 H   0  0
    2.8660   -2.3980    0.0000 H   0  0
    1.4630   -1.5880    0.0000 H   0  0
   10.3310   -1.4680    0.0000 H   0  0
    8.9280   -3.8980    0.0000 H   0  0
   10.3310   -3.0880    0.0000 H   0  0
    2.3100    2.2590    0.0000 H   0  0
    1.4630    2.0320    0.0000 H   0  0
    1.6900    1.1850    0.0000 H   0  0
    3.1950   -4.5880    0.0000 H   0  0
  1  2  2  0
  1  3  2  0
  1  8  1  0
  1 20  1  0
  4 24  1  0
  4 27  1  0
  5 25  1  0
  5 29  1  0
  6 30  1  0
  6 39  1  0
  7 33  1  0
  7 68  1  0
  8 23  1  0
  8 53  1  0
  9 23  1  0
  9 26  2  0
 10 25  2  0
 10 26  1  0
 11 28  2  0
 11 36  1  0
 12 28  1  0
 12 37  2  0
 13 14  1  0
 13 15  1  0
 13 16  1  0
 13 17  1  0
 14 18  2  0
 14 19  1  0
 15 40  1  0
 15 41  1  0
 15 42  1  0
 16 43  1  0
 16 44  1  0
 16 45  1  0
 17 46  1  0
 17 47  1  0
 17 48  1  0
 18 21  1  0
 18 49  1  0
 19 22  2  0
 19 50  1  0
 20 21  2  0
 20 22  1  0
 21 51  1  0
 22 52  1  0
 23 24  2  0
 24 25  1  0
 26 28  1  0
 27 30  2  0
 27 31  1  0
 29 33  1  0
 29 54  1  0
 29 55  1  0
 30 32  1  0
 31 34  2  0
 31 56  1  0
 32 35  2  0
 32 57  1  0
 33 58  1  0
 33 59  1  0
 34 35  1  0
 34 60  1  0
 35 61  1  0
 36 38  2  0
 36 62  1  0
 37 38  1  0
 37 63  1  0
 38 64  1  0
 39 65  1  0
 39 66  1  0
 39 67  1  0
M  END
> <Name>
104865

> <PUBCHEM_COMPOUND_CID>
104865

> <Toxicity>
1

> <Data Set>
TrainingSet

$$$$
92786
  SciTegic12242523262D

 57 60  0  0  1  0            999 V2000
    2.5360   -2.5030    0.0000 O   0  0
    8.5180    2.5490    0.0000 O   0  0
    6.1970   -0.4510    0.0000 C   0  0  1  0  0  0
    7.0630   -0.9510    0.0000 C   0  0  2  0  0  0
    7.9290   -0.4510    0.0000 C   0  0  1  0  0  0
    7.9290    0.5490    0.0000 C   0  0  2  0  0  0
    5.2870   -0.9580    0.0000 C   0  0  2  0  0  0
    5.2790   -1.9990    0.0000 C   0  0  1  0  0  0
    6.1970    0.5490    0.0000 C   0  0
    7.0630    1.0490    0.0000 C   0  0
    7.0790   -1.9920    0.0000 C   0  0
    8.8750    0.8540    0.0000 C   0  0  2  0  0  0
    8.8750   -0.7550    0.0000 C   0  0
    6.1810   -2.5200    0.0000 C   0  0
    4.3600   -0.3940    0.0000 C   0  0
    9.4590    0.0490    0.0000 C   0  0
    4.3430   -2.5490    0.0000 C   0  0
    7.9290    1.5490    0.0000 C   0  0
    5.2940    0.0420    0.0000 C   0  0
    3.4120   -0.9210    0.0000 C   0  0
    3.4040   -2.0060    0.0000 C   0  0  1  0  0  0
    9.1860    1.8050    0.0000 C   0  0
   10.1640    2.0110    0.0000 C   0  0
    6.9330   -0.0260    0.0000 H   0  0
    7.8020   -1.3700    0.0000 H   0  0
    8.0190   -1.2960    0.0000 H   0  0
    5.2820   -2.8490    0.0000 H   0  0
    5.9850    1.1320    0.0000 H   0  0
    5.5860    0.4420    0.0000 H   0  0
    7.4610    1.5240    0.0000 H   0  0
    6.6640    1.5240    0.0000 H   0  0
    7.2970   -2.5730    0.0000 H   0  0
    7.6880   -1.8770    0.0000 H   0  0
    9.4880    0.9500    0.0000 H   0  0
    8.6240   -1.3220    0.0000 H   0  0
    9.4120   -1.0650    0.0000 H   0  0
    5.7840   -2.9960    0.0000 H   0  0
    6.5820   -2.9930    0.0000 H   0  0
    4.7680    0.0730    0.0000 H   0  0
    3.9700    0.0890    0.0000 H   0  0
    9.9200   -0.3650    0.0000 H   0  0
    9.9200    0.4640    0.0000 H   0  0
    3.9460   -3.0250    0.0000 H   0  0
    4.7440   -3.0220    0.0000 H   0  0
    8.5490    1.5490    0.0000 H   0  0
    7.9290    2.1690    0.0000 H   0  0
    7.3090    1.5490    0.0000 H   0  0
    5.9140    0.0380    0.0000 H   0  0
    5.2990    0.6620    0.0000 H   0  0
    4.6740    0.0470    0.0000 H   0  0
    3.2080   -0.3360    0.0000 H   0  0
    2.8000   -1.0230    0.0000 H   0  0
    3.4020   -2.6260    0.0000 H   0  0
   10.2920    1.4040    0.0000 H   0  0
   10.7710    2.1390    0.0000 H   0  0
   10.0360    2.6180    0.0000 H   0  0
    2.0000   -2.1910    0.0000 H   0  0
 21  1  1  6
  1 57  1  0
  2 22  2  0
  3  4  1  0
  3  7  1  0
  3  9  1  0
  3 24  1  6
  4  5  1  0
  4 11  1  0
  4 25  1  1
  5  6  1  0
  5 13  1  0
  5 26  1  6
  6 10  1  0
  6 12  1  0
  6 18  1  1
  7  8  1  0
  7 15  1  0
  7 19  1  1
  8 14  1  0
  8 17  1  0
  8 27  1  6
  9 10  1  0
  9 28  1  0
  9 29  1  0
 10 30  1  0
 10 31  1  0
 11 14  1  0
 11 32  1  0
 11 33  1  0
 12 16  1  0
 12 22  1  1
 12 34  1  6
 13 16  1  0
 13 35  1  0
 13 36  1  0
 14 37  1  0
 14 38  1  0
 15 20  1  0
 15 39  1  0
 15 40  1  0
 16 41  1  0
 16 42  1  0
 17 21  1  0
 17 43  1  0
 17 44  1  0
 18 45  1  0
 18 46  1  0
 18 47  1  0
 19 48  1  0
 19 49  1  0
 19 50  1  0
 20 21  1  0
 20 51  1  0
 20 52  1  0
 21 53  1  1
 22 23  1  0
 23 54  1  0
 23 55  1  0
 23 56  1  0
M  END
> <Name>
92786

> <PUBCHEM_COMPOUND_CID>
92786

> <Toxicity>
0

> <Data Set>
TrainingSet

$$$$
31101
  SciTegic12242523262D

 83 89  0  0  1  0            999 V2000
    9.3420   -4.0980    0.0000 Br  0  0
    2.9610    2.1680    0.0000 O   0  0
    2.3640    3.1790    0.0000 O   0  0
    5.4760    1.6010    0.0000 O   0  0
    5.1130    5.5120    0.0000 O   0  0
    3.3460   -0.8620    0.0000 O   0  0
    4.3540    2.9780    0.0000 N   0  0
    3.5340    4.8020    0.0000 N   0  0
    4.2060    0.6420    0.0000 N   0  0
    6.8780   -0.8620    0.0000 N   0  0
    7.8660   -5.0520    0.0000 N   0  0
    2.9490    3.9900    0.0000 C   0  0  2  0  0  0
    3.3590    3.0780    0.0000 C   0  0  2  0  0  0
    4.9390    3.7890    0.0000 C   0  0  2  0  0  0
    2.0030    4.2960    0.0000 C   0  0
    3.7020    1.5060    0.0000 C   0  0  1  0  0  0
    2.9440    5.6020    0.0000 C   0  0
    2.0000    5.2900    0.0000 C   0  0
    4.5620    2.0060    0.0000 C   0  0
    4.5280    4.7010    0.0000 C   0  0
    5.9340    3.6880    0.0000 C   0  0
    3.0360    0.7600    0.0000 C   0  0
    6.5180    4.5000    0.0000 C   0  0
    2.0570    0.9640    0.0000 C   0  0
    3.3490   -0.1900    0.0000 C   0  0
    4.2100   -0.3580    0.0000 C   0  0
    5.0780   -0.8550    0.0000 C   0  0  1  0  0  0
    6.8620   -1.9030    0.0000 C   0  0  1  0  0  0
    5.9800   -0.3340    0.0000 C   0  0
    7.5130    4.3990    0.0000 C   0  0
    6.1080    5.4120    0.0000 C   0  0
    5.9960   -2.4030    0.0000 C   0  0
    5.0860   -1.8960    0.0000 C   0  0
    7.7280   -2.4030    0.0000 C   0  0
    5.9960   -3.4030    0.0000 C   0  0
    7.7280   -3.4030    0.0000 C   0  0
    6.8620   -3.9030    0.0000 C   0  0
    7.7500   -0.3720    0.0000 C   0  0
    6.8780   -4.9450    0.0000 C   0  0
    8.3460   -4.1820    0.0000 C   0  0
    5.0860   -3.9100    0.0000 C   0  0
    5.9800   -5.4720    0.0000 C   0  0
    5.0780   -4.9520    0.0000 C   0  0
    3.7940    3.9050    0.0000 H   0  0
    5.1930    3.2240    0.0000 H   0  0
    1.3860    4.3600    0.0000 H   0  0
    1.8750    3.6900    0.0000 H   0  0
    3.4790    5.9150    0.0000 H   0  0
    2.6890    6.1670    0.0000 H   0  0
    1.8690    5.8960    0.0000 H   0  0
    1.3840    5.2230    0.0000 H   0  0
    5.7650    3.0920    0.0000 H   0  0
    6.4920    3.4190    0.0000 H   0  0
    2.8420    1.3490    0.0000 H   0  0
    4.7420    0.9540    0.0000 H   0  0
    2.0020    2.6760    0.0000 H   0  0
    6.7730    3.9340    0.0000 H   0  0
    2.1840    1.5710    0.0000 H   0  0
    1.4500    1.0910    0.0000 H   0  0
    1.9310    0.3580    0.0000 H   0  0
    2.7600   -0.3840    0.0000 H   0  0
    3.5430   -0.7790    0.0000 H   0  0
    3.9380    0.0040    0.0000 H   0  0
    4.5420   -1.1680    0.0000 H   0  0
    7.6010   -1.4840    0.0000 H   0  0
    6.3810    0.1390    0.0000 H   0  0
    5.5820    0.1420    0.0000 H   0  0
    7.4510    3.7820    0.0000 H   0  0
    8.1300    4.3360    0.0000 H   0  0
    7.5760    5.0160    0.0000 H   0  0
    6.6730    5.6660    0.0000 H   0  0
    5.8540    5.9770    0.0000 H   0  0
    5.5420    5.1570    0.0000 H   0  0
    4.5520   -2.2130    0.0000 H   0  0
    8.3380   -2.5110    0.0000 H   0  0
    7.9400   -1.8210    0.0000 H   0  0
    8.0530   -0.9120    0.0000 H   0  0
    8.2900   -0.0680    0.0000 H   0  0
    7.4460    0.1690    0.0000 H   0  0
    4.5520   -3.5940    0.0000 H   0  0
    8.1520   -5.6020    0.0000 H   0  0
    5.9820   -6.0920    0.0000 H   0  0
    4.5400   -5.2600    0.0000 H   0  0
  1 40  1  0
  2 13  1  0
  2 16  1  0
 13  3  1  6
  3 56  1  0
  4 19  2  0
  5 20  2  0
  6 26  2  0
  7 13  1  0
  7 14  1  0
  7 19  1  0
  8 12  1  0
  8 17  1  0
  8 20  1  0
 16  9  1  6
  9 26  1  0
  9 55  1  0
 10 28  1  0
 10 29  1  0
 10 38  1  0
 11 39  1  0
 11 40  1  0
 11 81  1  0
 12 13  1  0
 12 15  1  0
 12 44  1  1
 14 20  1  0
 14 21  1  6
 14 45  1  1
 15 18  1  0
 15 46  1  0
 15 47  1  0
 16 19  1  0
 16 22  1  1
 17 18  1  0
 17 48  1  0
 17 49  1  0
 18 50  1  0
 18 51  1  0
 21 23  1  0
 21 52  1  0
 21 53  1  0
 22 24  1  0
 22 25  1  0
 22 54  1  0
 23 30  1  0
 23 31  1  0
 23 57  1  0
 24 58  1  0
 24 59  1  0
 24 60  1  0
 25 61  1  0
 25 62  1  0
 25 63  1  0
 27 26  1  1
 27 29  1  0
 27 33  1  0
 27 64  1  6
 28 32  1  0
 28 34  1  0
 28 65  1  1
 29 66  1  0
 29 67  1  0
 30 68  1  0
 30 69  1  0
 30 70  1  0
 31 71  1  0
 31 72  1  0
 31 73  1  0
 32 33  2  0
 32 35  1  0
 33 74  1  0
 34 36  1  0
 34 75  1  0
 34 76  1  0
 35 37  2  0
 35 41  1  0
 36 37  1  0
 36 40  2  0
 37 39  1  0
 38 77  1  0
 38 78  1  0
 38 79  1  0
 39 42  2  0
 41 43  2  0
 41 80  1  0
 42 43  1  0
 42 82  1  0
 43 83  1  0
M  END
> <Name>
31101

> <PUBCHEM_COMPOUND_CID>
31101

> <Toxicity>
1

> <Data Set>
TestSet

$$$$
5281004
  SciTegic12242523262D

 65 69  0  0  1  0            999 V2000
    9.0590   -0.5870    0.0000 O   0  0
    8.4070   -2.0480    0.0000 O   0  0
    6.4740    2.6870    0.0000 O   0  0
    8.7830    1.1020    0.0000 O   0  0
   10.6090    0.2870    0.0000 O   0  0
    2.0000    3.3310    0.0000 O   0  0
    7.3400    0.1870    0.0000 C   0  0  1  0  0  0
    6.4740   -0.3130    0.0000 C   0  0  2  0  0  0
    5.6080    0.1870    0.0000 C   0  0  1  0  0  0
    8.0770   -0.4800    0.0000 C   0  0  1  0  0  0
    5.6080    1.1870    0.0000 C   0  0  2  0  0  0
    6.6830   -1.2850    0.0000 C   0  0
    7.6720   -1.3880    0.0000 C   0  0  1  0  0  0
    7.3400    1.1870    0.0000 C   0  0
    6.4740    1.6870    0.0000 C   0  0  2  0  0  0
    4.7140    1.7220    0.0000 C   0  0  1  0  0  0
    4.7140   -0.3480    0.0000 C   0  0
    8.2060    0.6870    0.0000 C   0  0
    3.8080    0.1660    0.0000 C   0  0
    3.8080    1.2080    0.0000 C   0  0
    8.8860    0.1070    0.0000 C   0  0
    9.2630   -1.5540    0.0000 C   0  0
    5.5840    2.2150    0.0000 C   0  0
    4.7390    2.8060    0.0000 C   0  0
   10.1760   -1.9610    0.0000 C   0  0
    9.8000   -0.3000    0.0000 C   0  0
    2.8640    1.7430    0.0000 C   0  0
    3.8080    3.3630    0.0000 C   0  0
    2.8640    2.8280    0.0000 C   0  0
   10.2800   -2.9560    0.0000 C   0  0
   11.1930   -3.3630    0.0000 C   0  0
    5.7870   -0.8140    0.0000 H   0  0
    5.6140   -0.6630    0.0000 H   0  0
    6.3440    0.7620    0.0000 H   0  0
    6.0670   -1.3510    0.0000 H   0  0
    6.6840   -1.9050    0.0000 H   0  0
    7.3270   -2.1650    0.0000 H   0  0
    7.9500    1.0790    0.0000 H   0  0
    7.5520    1.7700    0.0000 H   0  0
    7.0110    1.9970    0.0000 H   0  0
    4.3200   -0.8270    0.0000 H   0  0
    5.1180   -0.8170    0.0000 H   0  0
    8.5160    0.1500    0.0000 H   0  0
    8.7430    0.9970    0.0000 H   0  0
    7.8960    1.2240    0.0000 H   0  0
    3.1970    0.2720    0.0000 H   0  0
    3.5990   -0.4180    0.0000 H   0  0
    9.2950   -2.1730    0.0000 H   0  0
    5.8900    1.6760    0.0000 H   0  0
    6.1230    2.5210    0.0000 H   0  0
    5.2780    2.7540    0.0000 H   0  0
    5.2820    3.1060    0.0000 H   0  0
    7.0110    2.9970    0.0000 H   0  0
   10.7950   -2.0050    0.0000 H   0  0
   10.3270   -1.3600    0.0000 H   0  0
    9.4520   -0.8140    0.0000 H   0  0
   10.2450   -0.7320    0.0000 H   0  0
    2.3280    1.4310    0.0000 H   0  0
    3.8150    3.9830    0.0000 H   0  0
    9.6620   -2.9120    0.0000 H   0  0
   10.1300   -3.5570    0.0000 H   0  0
   11.1750    0.0340    0.0000 H   0  0
   10.9400   -3.9300    0.0000 H   0  0
   11.7590   -3.6160    0.0000 H   0  0
   11.4460   -2.7970    0.0000 H   0  0
  1 10  1  0
  1 22  1  0
  2 13  1  0
  2 22  1  0
 15  3  1  1
  3 53  1  0
  4 21  2  0
  5 26  1  0
  5 62  1  0
  6 29  2  0
  7  8  1  0
  7 10  1  0
  7 14  1  0
  7 18  1  1
  8  9  1  0
  8 12  1  0
  8 32  1  6
  9 11  1  0
  9 17  1  0
  9 33  1  1
 10 13  1  0
 10 21  1  1
 11 15  1  0
 11 16  1  0
 11 34  1  6
 12 13  1  0
 12 35  1  0
 12 36  1  0
 13 37  1  1
 14 15  1  0
 14 38  1  0
 14 39  1  0
 15 40  1  6
 16 20  1  0
 16 23  1  1
 16 24  1  0
 17 19  1  0
 17 41  1  0
 17 42  1  0
 18 43  1  0
 18 44  1  0
 18 45  1  0
 19 20  1  0
 19 46  1  0
 19 47  1  0
 20 27  2  0
 21 26  1  0
 22 25  1  0
 22 48  1  0
 23 49  1  0
 23 50  1  0
 23 51  1  0
 24 28  2  0
 24 52  1  0
 25 30  1  0
 25 54  1  0
 25 55  1  0
 26 56  1  0
 26 57  1  0
 27 29  1  0
 27 58  1  0
 28 29  1  0
 28 59  1  0
 30 31  1  0
 30 60  1  0
 30 61  1  0
 31 63  1  0
 31 64  1  0
 31 65  1  0
M  END
> <Name>
5281004

> <PUBCHEM_COMPOUND_CID>
5281004

> <Toxicity>
0

> <Data Set>
TestSet

$$$$
2474
  SciTegic12242523262D

 49 50  0  0  1  0            999 V2000
    5.4640   -0.2500    0.0000 O   0  0
    5.4640    1.7500    0.0000 N   0  0
    3.7320   -0.2500    0.0000 N   0  0
    4.5980    1.2500    0.0000 C   0  0
    3.7320    1.7500    0.0000 C   0  0
    5.4640    2.7500    0.0000 C   0  0
    3.7320    2.7500    0.0000 C   0  0
    4.5980    3.2500    0.0000 C   0  0
    6.3300    1.2500    0.0000 C   0  0
    4.5980    0.2500    0.0000 C   0  0
    7.1960    1.7500    0.0000 C   0  0
    8.0620    1.2500    0.0000 C   0  0
    3.7320   -1.2500    0.0000 C   0  0
    8.9280    1.7500    0.0000 C   0  0
    2.8660   -1.7500    0.0000 C   0  0
    4.5980   -1.7500    0.0000 C   0  0
    2.8660   -2.7500    0.0000 C   0  0
    4.5980   -2.7500    0.0000 C   0  0
    2.0000   -1.2500    0.0000 C   0  0
    5.4640   -1.2500    0.0000 C   0  0
    3.7320   -3.2500    0.0000 C   0  0
    5.1350    0.9400    0.0000 H   0  0
    3.1220    1.8580    0.0000 H   0  0
    3.5200    1.1670    0.0000 H   0  0
    6.0750    2.6420    0.0000 H   0  0
    5.6760    3.3330    0.0000 H   0  0
    3.5200    3.3330    0.0000 H   0  0
    3.1220    2.6420    0.0000 H   0  0
    4.9970    3.7250    0.0000 H   0  0
    4.2000    3.7250    0.0000 H   0  0
    5.9320    0.7750    0.0000 H   0  0
    6.7290    0.7750    0.0000 H   0  0
    7.5950    2.2250    0.0000 H   0  0
    6.7980    2.2250    0.0000 H   0  0
    7.6640    0.7750    0.0000 H   0  0
    8.4610    0.7750    0.0000 H   0  0
    3.1950    0.0600    0.0000 H   0  0
    9.2380    1.2130    0.0000 H   0  0
    9.4650    2.0600    0.0000 H   0  0
    8.6180    2.2870    0.0000 H   0  0
    2.3290   -3.0600    0.0000 H   0  0
    5.1350   -3.0600    0.0000 H   0  0
    2.3100   -0.7130    0.0000 H   0  0
    1.4630   -0.9400    0.0000 H   0  0
    1.6900   -1.7870    0.0000 H   0  0
    5.7740   -1.7870    0.0000 H   0  0
    6.0010   -0.9400    0.0000 H   0  0
    5.1540   -0.7130    0.0000 H   0  0
    3.7320   -3.8700    0.0000 H   0  0
  1 10  2  0
  2  4  1  0
  2  6  1  0
  2  9  1  0
  3 10  1  0
  3 13  1  0
  3 37  1  0
  4  5  1  0
  4 10  1  0
  4 22  1  0
  5  7  1  0
  5 23  1  0
  5 24  1  0
  6  8  1  0
  6 25  1  0
  6 26  1  0
  7  8  1  0
  7 27  1  0
  7 28  1  0
  8 29  1  0
  8 30  1  0
  9 11  1  0
  9 31  1  0
  9 32  1  0
 11 12  1  0
 11 33  1  0
 11 34  1  0
 12 14  1  0
 12 35  1  0
 12 36  1  0
 13 15  2  0
 13 16  1  0
 14 38  1  0
 14 39  1  0
 14 40  1  0
 15 17  1  0
 15 19  1  0
 16 18  2  0
 16 20  1  0
 17 21  2  0
 17 41  1  0
 18 21  1  0
 18 42  1  0
 19 43  1  0
 19 44  1  0
 19 45  1  0
 20 46  1  0
 20 47  1  0
 20 48  1  0
 21 49  1  0
M  END
> <Name>
2474

> <PUBCHEM_COMPOUND_CID>
2474

> <Toxicity>
0

> <Data Set>
TrainingSet

$$$$
644073
  SciTegic12242523262D

 75 81  0  0  1  0            999 V2000
    5.0400   -2.4030    0.0000 O   0  0
    7.9200   -2.0800    0.0000 O   0  0
    5.7550   -3.1550    0.0000 O   0  0
    2.6200   -2.6040    0.0000 O   0  0
    6.0150    1.6060    0.0000 N   0  0
    6.0150   -0.0660    0.0000 C   0  0  2  0  0  0
    5.5330   -0.9020    0.0000 C   0  0  1  0  0  0
    6.9800   -1.7380    0.0000 C   0  0  1  0  0  0
    6.0150   -1.7380    0.0000 C   0  0  2  0  0  0
    6.3480   -1.2450    0.0000 C   0  0  2  0  0  0
    6.7120   -0.5160    0.0000 C   0  0
    5.5330    0.7700    0.0000 C   0  0  1  0  0  0
    6.9800   -0.0660    0.0000 C   0  0
    7.4630   -0.9020    0.0000 C   0  0
    5.0500   -0.0660    0.0000 C   0  0
    4.5680   -0.9020    0.0000 C   0  0
    4.5680    0.7700    0.0000 C   0  0
    6.0510   -2.2000    0.0000 C   0  0  1  0  0  0
    5.0400    1.7790    0.0000 C   0  0
    4.0850   -0.0660    0.0000 C   0  0
    4.0850   -1.7380    0.0000 C   0  0
    6.9220    2.0270    0.0000 C   0  0
    6.5930   -3.0410    0.0000 C   0  0
    7.0100    3.0240    0.0000 C   0  0
    5.1620   -1.7420    0.0000 C   0  0
    3.1200   -0.0660    0.0000 C   0  0
    3.1200   -1.7380    0.0000 C   0  0
    7.5840    3.8420    0.0000 C   0  0
    6.5880    3.9300    0.0000 C   0  0
    8.6860   -1.4370    0.0000 C   0  0
    2.6370   -0.9020    0.0000 C   0  0
    7.1340   -3.8820    0.0000 C   0  0
    6.1350   -3.9300    0.0000 C   0  0
    7.5920   -2.9930    0.0000 C   0  0
    6.7290   -2.1990    0.0000 H   0  0
    5.5590   -0.9280    0.0000 H   0  0
    7.2560   -0.8130    0.0000 H   0  0
    7.0290    0.0170    0.0000 H   0  0
    6.3290    0.4720    0.0000 H   0  0
    7.5630    0.1460    0.0000 H   0  0
    6.8730    0.5440    0.0000 H   0  0
    7.9380   -1.3000    0.0000 H   0  0
    7.9380   -0.5030    0.0000 H   0  0
    4.4670    0.1440    0.0000 H   0  0
    5.6490    0.0960    0.0000 H   0  0
    4.6750    1.3800    0.0000 H   0  0
    3.9850    0.9820    0.0000 H   0  0
    5.1110    2.3950    0.0000 H   0  0
    4.4200    1.8130    0.0000 H   0  0
    7.0820    1.4290    0.0000 H   0  0
    7.5400    2.0810    0.0000 H   0  0
    7.5920    2.8110    0.0000 H   0  0
    5.4460   -1.1910    0.0000 H   0  0
    4.6110   -1.4590    0.0000 H   0  0
    4.8790   -2.2940    0.0000 H   0  0
    2.8100    0.4710    0.0000 H   0  0
    5.1500   -3.2920    0.0000 H   0  0
    8.1460    3.5800    0.0000 H   0  0
    7.7450    4.4410    0.0000 H   0  0
    6.5340    4.5480    0.0000 H   0  0
    5.9890    3.7700    0.0000 H   0  0
    9.0850   -1.9120    0.0000 H   0  0
    9.1610   -1.0380    0.0000 H   0  0
    8.2880   -0.9620    0.0000 H   0  0
    2.0170   -0.9020    0.0000 H   0  0
    6.6130   -4.2180    0.0000 H   0  0
    7.4700   -4.4030    0.0000 H   0  0
    7.6550   -3.5460    0.0000 H   0  0
    5.5840   -3.6460    0.0000 H   0  0
    5.8510   -4.4820    0.0000 H   0  0
    6.6860   -4.2140    0.0000 H   0  0
    7.6210   -3.6120    0.0000 H   0  0
    8.2110   -2.9630    0.0000 H   0  0
    7.5620   -2.3740    0.0000 H   0  0
    2.0000   -2.6040    0.0000 H   0  0
  1  9  1  0
  1 21  1  0
  8  2  1  1
  2 30  1  0
 18  3  1  1
  3 57  1  0
  4 27  1  0
  4 75  1  0
  5 12  1  0
  5 19  1  0
  5 22  1  0
  6  7  1  0
  6 11  1  1
  6 12  1  0
  6 13  1  6
  7  9  1  0
  7 15  1  1
  7 16  1  0
  8  9  1  0
  8 10  1  0
  8 14  1  0
  9 35  1  1
 10 11  1  0
 10 18  1  0
 10 36  1  6
 11 37  1  0
 11 38  1  0
 12 17  1  0
 12 39  1  6
 13 14  1  0
 13 40  1  0
 13 41  1  0
 14 42  1  0
 14 43  1  0
 15 19  1  0
 15 44  1  0
 15 45  1  0
 16 20  1  0
 16 21  2  0
 17 20  1  0
 17 46  1  0
 17 47  1  0
 18 23  1  0
 18 25  1  6
 19 48  1  0
 19 49  1  0
 20 26  2  0
 21 27  1  0
 22 24  1  0
 22 50  1  0
 22 51  1  0
 23 32  1  0
 23 33  1  0
 23 34  1  0
 24 28  1  0
 24 29  1  0
 24 52  1  0
 25 53  1  0
 25 54  1  0
 25 55  1  0
 26 31  1  0
 26 56  1  0
 27 31  2  0
 28 29  1  0
 28 58  1  0
 28 59  1  0
 29 60  1  0
 29 61  1  0
 30 62  1  0
 30 63  1  0
 30 64  1  0
 31 65  1  0
 32 66  1  0
 32 67  1  0
 32 68  1  0
 33 69  1  0
 33 70  1  0
 33 71  1  0
 34 72  1  0
 34 73  1  0
 34 74  1  0
M  END
> <Name>
644073

> <PUBCHEM_COMPOUND_CID>
644073

> <Toxicity>
0

> <Data Set>
TrainingSet

$$$$
2477
  SciTegic12242523262D

 59 62  0  0  0  0            999 V2000
   11.0000    1.2990    0.0000 O   0  0
   11.0000   -2.1650    0.0000 O   0  0
   11.0000   -0.4330    0.0000 N   0  0
    7.0000    1.2990    0.0000 N   0  0
    5.0000    1.2990    0.0000 N   0  0
    3.5000    0.4330    0.0000 N   0  0
    3.5000    2.1650    0.0000 N   0  0
   13.0000   -0.4330    0.0000 C   0  0
   13.5880    0.3760    0.0000 C   0  0
   13.5880   -1.2420    0.0000 C   0  0
   14.5390    0.0670    0.0000 C   0  0
   14.5390   -0.9330    0.0000 C   0  0
   12.5000    0.4330    0.0000 C   0  0
   12.5000   -1.2990    0.0000 C   0  0
   11.5000    0.4330    0.0000 C   0  0
   11.5000   -1.2990    0.0000 C   0  0
   10.0000   -0.4330    0.0000 C   0  0
    9.5000    0.4330    0.0000 C   0  0
    8.5000    0.4330    0.0000 C   0  0
    8.0000    1.2990    0.0000 C   0  0
    6.5000    2.1650    0.0000 C   0  0
    6.5000    0.4330    0.0000 C   0  0
    5.5000    2.1650    0.0000 C   0  0
    5.5000    0.4330    0.0000 C   0  0
    4.0000    1.2990    0.0000 C   0  0
    2.5000    0.4330    0.0000 C   0  0
    2.5000    2.1650    0.0000 C   0  0
    2.0000    1.2990    0.0000 C   0  0
   13.8400    0.9420    0.0000 H   0  0
   13.0510    0.6860    0.0000 H   0  0
   13.0510   -1.5520    0.0000 H   0  0
   13.8400   -1.8080    0.0000 H   0  0
   15.1550    0.0020    0.0000 H   0  0
   14.6680    0.6730    0.0000 H   0  0
   14.6680   -1.5400    0.0000 H   0  0
   15.1550   -0.8680    0.0000 H   0  0
   13.0830    0.6450    0.0000 H   0  0
   12.3920    1.0440    0.0000 H   0  0
   12.3920   -1.9100    0.0000 H   0  0
   13.0830   -1.5110    0.0000 H   0  0
    9.4170   -0.6450    0.0000 H   0  0
   10.1080   -1.0440    0.0000 H   0  0
   10.0830    0.6450    0.0000 H   0  0
    9.3920    1.0440    0.0000 H   0  0
    7.9170    0.2210    0.0000 H   0  0
    8.6080   -0.1780    0.0000 H   0  0
    8.5830    1.5110    0.0000 H   0  0
    7.8920    1.9100    0.0000 H   0  0
    7.0830    2.3770    0.0000 H   0  0
    6.3920    2.7760    0.0000 H   0  0
    6.3920   -0.1780    0.0000 H   0  0
    7.0830    0.2210    0.0000 H   0  0
    5.6080    2.7760    0.0000 H   0  0
    4.9170    2.3770    0.0000 H   0  0
    4.9170    0.2210    0.0000 H   0  0
    5.6080   -0.1780    0.0000 H   0  0
    2.1900   -0.1040    0.0000 H   0  0
    2.1900    2.7020    0.0000 H   0  0
    1.3800    1.2990    0.0000 H   0  0
  1 15  2  0
  2 16  2  0
  3 15  1  0
  3 16  1  0
  3 17  1  0
  4 20  1  0
  4 21  1  0
  4 22  1  0
  5 23  1  0
  5 24  1  0
  5 25  1  0
  6 25  2  0
  6 26  1  0
  7 25  1  0
  7 27  2  0
  8  9  1  0
  8 10  1  0
  8 13  1  0
  8 14  1  0
  9 11  1  0
  9 29  1  0
  9 30  1  0
 10 12  1  0
 10 31  1  0
 10 32  1  0
 11 12  1  0
 11 33  1  0
 11 34  1  0
 12 35  1  0
 12 36  1  0
 13 15  1  0
 13 37  1  0
 13 38  1  0
 14 16  1  0
 14 39  1  0
 14 40  1  0
 17 18  1  0
 17 41  1  0
 17 42  1  0
 18 19  1  0
 18 43  1  0
 18 44  1  0
 19 20  1  0
 19 45  1  0
 19 46  1  0
 20 47  1  0
 20 48  1  0
 21 23  1  0
 21 49  1  0
 21 50  1  0
 22 24  1  0
 22 51  1  0
 22 52  1  0
 23 53  1  0
 23 54  1  0
 24 55  1  0
 24 56  1  0
 26 28  2  0
 26 57  1  0
 27 28  1  0
 27 58  1  0
 28 59  1  0
M  END
> <Name>
2477

> <PUBCHEM_COMPOUND_CID>
2477

> <Toxicity>
0

> <Data Set>
TrainingSet

$$$$
2478
  SciTegic12242523262D

 28 27  0  0  0  0            999 V2000
    2.8660   -0.2500    0.0000 S   0  0
    8.9280    0.2500    0.0000 S   0  0
    3.7320    0.2500    0.0000 O   0  0
    8.0620   -0.2500    0.0000 O   0  0
    2.3660    0.6160    0.0000 O   0  0
    3.3660   -1.1160    0.0000 O   0  0
    9.4280   -0.6160    0.0000 O   0  0
    8.4280    1.1160    0.0000 O   0  0
    5.4640    0.2500    0.0000 C   0  0
    6.3300   -0.2500    0.0000 C   0  0
    4.5980   -0.2500    0.0000 C   0  0
    7.1960    0.2500    0.0000 C   0  0
    2.0000   -0.7500    0.0000 C   0  0
    9.7940    0.7500    0.0000 C   0  0
    5.8630    0.7250    0.0000 H   0  0
    5.0660    0.7250    0.0000 H   0  0
    5.9320   -0.7250    0.0000 H   0  0
    6.7290   -0.7250    0.0000 H   0  0
    4.2000   -0.7250    0.0000 H   0  0
    4.9970   -0.7250    0.0000 H   0  0
    7.5950    0.7250    0.0000 H   0  0
    6.7980    0.7250    0.0000 H   0  0
    1.6900   -0.2130    0.0000 H   0  0
    1.4630   -1.0600    0.0000 H   0  0
    2.3100   -1.2870    0.0000 H   0  0
   10.1040    0.2130    0.0000 H   0  0
   10.3310    1.0600    0.0000 H   0  0
    9.4840    1.2870    0.0000 H   0  0
  1  3  1  0
  1  5  2  0
  1  6  2  0
  1 13  1  0
  2  4  1  0
  2  7  2  0
  2  8  2  0
  2 14  1  0
  3 11  1  0
  4 12  1  0
  9 10  1  0
  9 11  1  0
  9 15  1  0
  9 16  1  0
 10 12  1  0
 10 17  1  0
 10 18  1  0
 11 19  1  0
 11 20  1  0
 12 21  1  0
 12 22  1  0
 13 23  1  0
 13 24  1  0
 13 25  1  0
 14 26  1  0
 14 27  1  0
 14 28  1  0
M  END
> <Name>
2478

> <PUBCHEM_COMPOUND_CID>
2478

> <Toxicity>
1

> <Data Set>
TrainingSet

$$$$
6916249
  SciTegic12242523262D

 53 57  0  0  1  0            999 V2000
    7.8000   -0.2840    0.0000 O   0  0
    2.5380   -1.3080    0.0000 O   0  0
    6.5120    0.2070    0.0000 N   0  0
    6.0680   -1.2840    0.0000 C   0  0  1  0  0  0
    6.9340   -0.7840    0.0000 C   0  0  1  0  0  0
    6.9340    0.2160    0.0000 C   0  0  1  0  0  0
    5.8650   -0.9140    0.0000 C   0  0
    6.0520   -2.3250    0.0000 C   0  0
    7.8440   -1.2910    0.0000 C   0  0
    5.2020   -0.7840    0.0000 C   0  0
    5.7820   -0.1180    0.0000 C   0  0
    6.0680    0.7160    0.0000 C   0  0
    6.9500   -2.8530    0.0000 C   0  0
    7.8520   -2.3320    0.0000 C   0  0
    5.2020    0.2160    0.0000 C   0  0
    6.7200    1.1850    0.0000 C   0  0
    5.9770    1.8540    0.0000 C   0  0
    5.9250    2.8530    0.0000 C   0  0
    4.9780    1.8020    0.0000 C   0  0
    4.3080   -1.3180    0.0000 C   0  0
    4.9260    2.8010    0.0000 C   0  0
    4.3080    0.7510    0.0000 C   0  0
    3.4020   -0.8050    0.0000 C   0  0
    3.4020    0.2370    0.0000 C   0  0
    7.3590    0.9520    0.0000 H   0  0
    5.2700   -0.7390    0.0000 H   0  0
    6.4570   -0.7290    0.0000 H   0  0
    5.4430   -2.2100    0.0000 H   0  0
    5.8340   -2.9060    0.0000 H   0  0
    8.4560   -1.3920    0.0000 H   0  0
    8.0490   -0.7050    0.0000 H   0  0
    5.5900    0.4710    0.0000 H   0  0
    5.1750   -0.2470    0.0000 H   0  0
    6.4670    1.1910    0.0000 H   0  0
    5.6700    1.1910    0.0000 H   0  0
    6.5490   -3.3260    0.0000 H   0  0
    7.3480   -3.3290    0.0000 H   0  0
    8.0660   -2.9140    0.0000 H   0  0
    8.4620   -2.2210    0.0000 H   0  0
    7.2950    0.9530    0.0000 H   0  0
    7.0490    1.7110    0.0000 H   0  0
    6.5370    2.1210    0.0000 H   0  0
    8.3370   -0.5940    0.0000 H   0  0
    6.5440    2.8860    0.0000 H   0  0
    5.8920    3.4720    0.0000 H   0  0
    4.3590    1.7700    0.0000 H   0  0
    5.0110    1.1830    0.0000 H   0  0
    4.3150   -1.9380    0.0000 H   0  0
    4.8940    3.4200    0.0000 H   0  0
    4.3070    2.7680    0.0000 H   0  0
    4.3150    1.3710    0.0000 H   0  0
    2.8660    0.5490    0.0000 H   0  0
    2.0000   -1.0000    0.0000 H   0  0
  5  1  1  1
  1 43  1  0
  2 23  1  0
  2 53  1  0
  3  6  1  0
  3 11  1  0
  3 16  1  0
  4  5  1  0
  4  7  1  6
  4  8  1  0
  4 10  1  0
  5  6  1  0
  5  9  1  0
  6 12  1  0
  6 25  1  6
  7 11  1  0
  7 26  1  0
  7 27  1  0
  8 13  1  0
  8 28  1  0
  8 29  1  0
  9 14  1  0
  9 30  1  0
  9 31  1  0
 10 15  1  0
 10 20  2  0
 11 32  1  0
 11 33  1  0
 12 15  1  0
 12 34  1  0
 12 35  1  0
 13 14  1  0
 13 36  1  0
 13 37  1  0
 14 38  1  0
 14 39  1  0
 15 22  2  0
 16 17  1  0
 16 40  1  0
 16 41  1  0
 17 18  1  0
 17 19  1  0
 17 42  1  0
 18 21  1  0
 18 44  1  0
 18 45  1  0
 19 21  1  0
 19 46  1  0
 19 47  1  0
 20 23  1  0
 20 48  1  0
 21 49  1  0
 21 50  1  0
 22 24  1  0
 22 51  1  0
 23 24  2  0
 24 52  1  0
M  END
> <Name>
6916249

> <PUBCHEM_COMPOUND_CID>
6916249

> <Toxicity>
0

> <Data Set>
TrainingSet

$$$$
2519
  SciTegic12242523262D

 24 25  0  0  0  0            999 V2000
    3.7320    2.0000    0.0000 O   0  0
    2.0000   -1.0000    0.0000 O   0  0
    3.7320   -1.0000    0.0000 N   0  0
    5.5440    0.8050    0.0000 N   0  0
    2.8660    0.5000    0.0000 N   0  0
    5.5440   -0.8050    0.0000 N   0  0
    4.5980    0.5000    0.0000 C   0  0
    4.5980   -0.5000    0.0000 C   0  0
    3.7320    1.0000    0.0000 C   0  0
    2.8660   -0.5000    0.0000 C   0  0
    6.1280    0.0000    0.0000 C   0  0
    3.7320   -2.0000    0.0000 C   0  0
    5.8550    1.7550    0.0000 C   0  0
    2.0000    1.0000    0.0000 C   0  0
    6.7480    0.0000    0.0000 H   0  0
    3.1120   -2.0000    0.0000 H   0  0
    3.7320   -2.6200    0.0000 H   0  0
    4.3520   -2.0000    0.0000 H   0  0
    6.4440    1.5630    0.0000 H   0  0
    6.0480    2.3450    0.0000 H   0  0
    5.2660    1.9480    0.0000 H   0  0
    2.3100    1.5370    0.0000 H   0  0
    1.4630    1.3100    0.0000 H   0  0
    1.6900    0.4630    0.0000 H   0  0
  1  9  2  0
  2 10  2  0
  3  8  1  0
  3 10  1  0
  3 12  1  0
  4  7  1  0
  4 11  1  0
  4 13  1  0
  5  9  1  0
  5 10  1  0
  5 14  1  0
  6  8  1  0
  6 11  2  0
  7  8  2  0
  7  9  1  0
 11 15  1  0
 12 16  1  0
 12 17  1  0
 12 18  1  0
 13 19  1  0
 13 20  1  0
 13 21  1  0
 14 22  1  0
 14 23  1  0
 14 24  1  0
M  END
> <Name>
2519

> <PUBCHEM_COMPOUND_CID>
2519

> <Toxicity>
0

> <Data Set>
TrainingSet

$$$$
24812758
  SciTegic12242523262D

 56 59  0  0  1  0            999 V2000
    4.0420   -1.8550    0.0000 S   0  0
    2.0000   -6.0420    0.0000 F   0  0
    7.4490    3.2320    0.0000 O   0  0
    4.8510    2.7320    0.0000 O   0  0
    4.8510    4.7320    0.0000 O   0  0
    6.5830    5.7320    0.0000 O   0  0
    9.1810    4.2320    0.0000 O   0  0
    5.7170    3.2320    0.0000 C   0  0  2  0  0  0
    5.7170    4.2320    0.0000 C   0  0  2  0  0  0
    6.5830    2.7320    0.0000 C   0  0  2  0  0  0
    6.5830    4.7320    0.0000 C   0  0  1  0  0  0
    7.4490    4.2320    0.0000 C   0  0  1  0  0  0
    6.5830    1.7320    0.0000 C   0  0
    8.3150    4.7320    0.0000 C   0  0
    5.7170    1.2320    0.0000 C   0  0
    7.4490    1.2320    0.0000 C   0  0
    5.7170    0.2320    0.0000 C   0  0
    6.5830   -0.2680    0.0000 C   0  0
    7.4490    0.2320    0.0000 C   0  0
    4.8510   -0.2680    0.0000 C   0  0
    6.5830   -1.2680    0.0000 C   0  0
    4.8510   -1.2680    0.0000 C   0  0
    5.6600   -1.8550    0.0000 C   0  0
    4.3510   -2.8060    0.0000 C   0  0
    5.3510   -2.8060    0.0000 C   0  0
    3.7630   -3.6150    0.0000 C   0  0
    4.1700   -4.5290    0.0000 C   0  0
    2.7690   -3.5110    0.0000 C   0  0
    3.5820   -5.3380    0.0000 C   0  0
    2.1810   -4.3200    0.0000 C   0  0
    2.5880   -5.2330    0.0000 C   0  0
    5.7170    2.6120    0.0000 H   0  0
    5.7170    4.8520    0.0000 H   0  0
    7.1200    2.4220    0.0000 H   0  0
    7.1200    5.0420    0.0000 H   0  0
    7.9860    3.9220    0.0000 H   0  0
    8.7140    5.2070    0.0000 H   0  0
    7.9170    5.2070    0.0000 H   0  0
    5.1800    1.5420    0.0000 H   0  0
    4.3140    3.0420    0.0000 H   0  0
    4.8510    5.3520    0.0000 H   0  0
    7.1200    6.0420    0.0000 H   0  0
    7.9860    1.5420    0.0000 H   0  0
    7.9860   -0.0780    0.0000 H   0  0
    4.6390    0.3150    0.0000 H   0  0
    4.2410   -0.3750    0.0000 H   0  0
    9.7180    4.5420    0.0000 H   0  0
    5.9630   -1.2680    0.0000 H   0  0
    6.5830   -1.8880    0.0000 H   0  0
    7.2030   -1.2680    0.0000 H   0  0
    6.2500   -1.6640    0.0000 H   0  0
    5.7160   -3.3080    0.0000 H   0  0
    4.7870   -4.5940    0.0000 H   0  0
    2.5170   -2.9440    0.0000 H   0  0
    3.8340   -5.9040    0.0000 H   0  0
    1.5640   -4.2550    0.0000 H   0  0
  1 22  1  0
  1 24  1  0
  2 31  1  0
  3 10  1  0
  3 12  1  0
  8  4  1  6
  4 40  1  0
  9  5  1  1
  5 41  1  0
 11  6  1  6
  6 42  1  0
  7 14  1  0
  7 47  1  0
  8  9  1  0
  8 10  1  0
  8 32  1  1
  9 11  1  0
  9 33  1  6
 10 13  1  1
 10 34  1  6
 11 12  1  0
 11 35  1  1
 12 14  1  1
 12 36  1  6
 13 15  1  0
 13 16  2  0
 14 37  1  0
 14 38  1  0
 15 17  2  0
 15 39  1  0
 16 19  1  0
 16 43  1  0
 17 18  1  0
 17 20  1  0
 18 19  2  0
 18 21  1  0
 19 44  1  0
 20 22  1  0
 20 45  1  0
 20 46  1  0
 21 48  1  0
 21 49  1  0
 21 50  1  0
 22 23  2  0
 23 25  1  0
 23 51  1  0
 24 25  2  0
 24 26  1  0
 25 52  1  0
 26 27  1  0
 26 28  2  0
 27 29  2  0
 27 53  1  0
 28 30  1  0
 28 54  1  0
 29 31  1  0
 29 55  1  0
 30 31  2  0
 30 56  1  0
M  END
> <Name>
24812758

> <PUBCHEM_COMPOUND_CID>
24812758

> <Toxicity>
1

> <Data Set>
TrainingSet

$$$$
5281520
  SciTegic12242523262D

 39 39  0  0  0  0            999 V2000
    5.1980    0.4370    0.0000 C   0  0
    4.5980    1.3300    0.0000 C   0  0
    4.6980   -0.4290    0.0000 C   0  0
    5.9060    1.1440    0.0000 C   0  0
    6.1500    0.1320    0.0000 C   0  0
    3.7320    0.8300    0.0000 C   0  0
    2.8660    1.3300    0.0000 C   0  0
    2.0000    0.8300    0.0000 C   0  0
    5.1980   -1.2950    0.0000 C   0  0
    2.0000   -0.1700    0.0000 C   0  0
    4.3320   -1.7950    0.0000 C   0  0
    3.3660   -1.5360    0.0000 C   0  0
    2.8660   -0.6700    0.0000 C   0  0
    2.8660    2.3300    0.0000 C   0  0
    2.7570   -2.3300    0.0000 C   0  0
    5.1200    1.6640    0.0000 H   0  0
    4.2760    1.8600    0.0000 H   0  0
    4.0780   -0.4290    0.0000 H   0  0
    6.3440    0.7050    0.0000 H   0  0
    6.3440    1.5820    0.0000 H   0  0
    5.4670    1.5820    0.0000 H   0  0
    5.9610   -0.4590    0.0000 H   0  0
    6.7410   -0.0570    0.0000 H   0  0
    6.3390    0.7220    0.0000 H   0  0
    3.7320    0.2100    0.0000 H   0  0
    1.7880    1.4120    0.0000 H   0  0
    1.3890    0.7220    0.0000 H   0  0
    5.7970   -1.4560    0.0000 H   0  0
    1.3890   -0.0630    0.0000 H   0  0
    1.7880   -0.7530    0.0000 H   0  0
    4.0220   -2.3320    0.0000 H   0  0
    4.7700   -2.2340    0.0000 H   0  0
    3.3040   -0.2320    0.0000 H   0  0
    3.4860    2.3300    0.0000 H   0  0
    2.8660    2.9500    0.0000 H   0  0
    2.2460    2.3300    0.0000 H   0  0
    2.2650   -1.9520    0.0000 H   0  0
    2.3800   -2.8220    0.0000 H   0  0
    3.2490   -2.7070    0.0000 H   0  0
  1  2  1  0
  1  3  1  0
  1  4  1  0
  1  5  1  0
  2  6  1  0
  2 16  1  0
  2 17  1  0
  3  9  2  0
  3 18  1  0
  4 19  1  0
  4 20  1  0
  4 21  1  0
  5 22  1  0
  5 23  1  0
  5 24  1  0
  6  7  2  0
  6 25  1  0
  7  8  1  0
  7 14  1  0
  8 10  1  0
  8 26  1  0
  8 27  1  0
  9 11  1  0
  9 28  1  0
 10 13  1  0
 10 29  1  0
 10 30  1  0
 11 12  1  0
 11 31  1  0
 11 32  1  0
 12 13  2  0
 12 15  1  0
 13 33  1  0
 14 34  1  0
 14 35  1  0
 14 36  1  0
 15 37  1  0
 15 38  1  0
 15 39  1  0
M  END
> <Name>
5281520

> <PUBCHEM_COMPOUND_CID>
5281520

> <Toxicity>
1

> <Data Set>
TestSet

$$$$
60953
  SciTegic12242523262D

 47 48  0  0  1  0            999 V2000
    2.4890   -0.0430    0.0000 F   0  0
    5.0300   -3.6310    0.0000 O   0  0
    2.4610   -3.3220    0.0000 O   0  0
    3.1330   -5.3910    0.0000 O   0  0
    5.9530   -2.0430    0.0000 O   0  0
    5.0870    2.4570    0.0000 O   0  0
    5.9530    0.9570    0.0000 O   0  0
    4.2210   -2.0430    0.0000 N   0  0
    5.0870   -0.5430    0.0000 N   0  0
    4.2210    0.9570    0.0000 N   0  0
    3.4120   -3.6310    0.0000 C   0  0  2  0  0  0
    3.7210   -4.5820    0.0000 C   0  0  1  0  0  0
    4.2210   -3.0430    0.0000 C   0  0  1  0  0  0
    4.7210   -4.5820    0.0000 C   0  0  1  0  0  0
    5.3090   -5.3910    0.0000 C   0  0
    3.3550   -1.5430    0.0000 C   0  0
    5.0870   -1.5430    0.0000 C   0  0
    3.3550   -0.5430    0.0000 C   0  0
    4.2210   -0.0430    0.0000 C   0  0
    6.8190    4.4570    0.0000 C   0  0
    5.9530    3.9570    0.0000 C   0  0
    6.8190    5.4570    0.0000 C   0  0
    5.9530    2.9570    0.0000 C   0  0
    5.0870    1.4570    0.0000 C   0  0
    7.6850    5.9570    0.0000 C   0  0
    3.3150   -3.0180    0.0000 H   0  0
    3.1080   -4.4850    0.0000 H   0  0
    3.6680   -2.7610    0.0000 H   0  0
    5.3330   -4.4850    0.0000 H   0  0
    4.8070   -5.7550    0.0000 H   0  0
    5.6730   -5.8920    0.0000 H   0  0
    5.8100   -5.0260    0.0000 H   0  0
    2.0000   -3.7360    0.0000 H   0  0
    3.3850   -5.9570    0.0000 H   0  0
    2.8180   -1.8530    0.0000 H   0  0
    7.0310    3.8740    0.0000 H   0  0
    7.4300    4.5650    0.0000 H   0  0
    5.7410    4.5400    0.0000 H   0  0
    5.3420    3.8500    0.0000 H   0  0
    3.6840    1.2670    0.0000 H   0  0
    6.6070    6.0400    0.0000 H   0  0
    6.2080    5.3500    0.0000 H   0  0
    6.1650    2.3740    0.0000 H   0  0
    6.5640    3.0650    0.0000 H   0  0
    7.9950    5.4200    0.0000 H   0  0
    8.2220    6.2670    0.0000 H   0  0
    7.3750    6.4940    0.0000 H   0  0
  1 18  1  0
  2 13  1  0
  2 14  1  0
 11  3  1  1
  3 33  1  0
 12  4  1  1
  4 34  1  0
  5 17  2  0
  6 23  1  0
  6 24  1  0
  7 24  2  0
 13  8  1  6
  8 16  1  0
  8 17  1  0
  9 17  1  0
  9 19  2  0
 10 19  1  0
 10 24  1  0
 10 40  1  0
 11 12  1  0
 11 13  1  0
 11 26  1  6
 12 14  1  0
 12 27  1  6
 13 28  1  1
 14 15  1  6
 14 29  1  1
 15 30  1  0
 15 31  1  0
 15 32  1  0
 16 18  2  0
 16 35  1  0
 18 19  1  0
 20 21  1  0
 20 22  1  0
 20 36  1  0
 20 37  1  0
 21 23  1  0
 21 38  1  0
 21 39  1  0
 22 25  1  0
 22 41  1  0
 22 42  1  0
 23 43  1  0
 23 44  1  0
 25 45  1  0
 25 46  1  0
 25 47  1  0
M  END
> <Name>
60953

> <PUBCHEM_COMPOUND_CID>
60953

> <Toxicity>
1

> <Data Set>
TrainingSet

$$$$
44093
  SciTegic12242523262D

 29 29  0  0  1  0            999 V2000
    2.0000   -1.9590    0.0000 S   0  0
    4.5980   -0.4590    0.0000 O   0  0
    6.2350    1.9880    0.0000 O   0  0
    5.7000    0.3410    0.0000 O   0  0
    3.7320    1.0410    0.0000 N   0  0
    4.5410    1.6280    0.0000 C   0  0  1  0  0  0
    4.2320    2.5790    0.0000 C   0  0
    3.2320    2.5790    0.0000 C   0  0
    2.9230    1.6280    0.0000 C   0  0
    3.7320    0.0410    0.0000 C   0  0
    2.8660   -0.4590    0.0000 C   0  0  1  0  0  0
    5.4920    1.3190    0.0000 C   0  0
    2.8660   -1.4590    0.0000 C   0  0
    2.0000    0.0410    0.0000 C   0  0
    4.6380    1.0160    0.0000 H   0  0
    4.8380    2.7080    0.0000 H   0  0
    4.1670    3.1960    0.0000 H   0  0
    3.2970    3.1960    0.0000 H   0  0
    2.6260    2.7080    0.0000 H   0  0
    2.3570    1.8800    0.0000 H   0  0
    2.6130    1.0910    0.0000 H   0  0
    2.8660    0.1610    0.0000 H   0  0
    3.0780   -2.0420    0.0000 H   0  0
    3.4770   -1.3520    0.0000 H   0  0
    2.3100    0.5780    0.0000 H   0  0
    1.4630    0.3510    0.0000 H   0  0
    1.6900   -0.4960    0.0000 H   0  0
    6.8250    1.7970    0.0000 H   0  0
    2.0000   -2.5790    0.0000 H   0  0
  1 13  1  0
  1 29  1  0
  2 10  2  0
  3 12  1  0
  3 28  1  0
  4 12  2  0
  5  6  1  0
  5  9  1  0
  5 10  1  0
  6  7  1  0
  6 12  1  1
  6 15  1  6
  7  8  1  0
  7 16  1  0
  7 17  1  0
  8  9  1  0
  8 18  1  0
  8 19  1  0
  9 20  1  0
  9 21  1  0
 11 10  1  1
 11 13  1  0
 11 14  1  0
 11 22  1  6
 13 23  1  0
 13 24  1  0
 14 25  1  0
 14 26  1  0
 14 27  1  0
M  END
> <Name>
44093

> <PUBCHEM_COMPOUND_CID>
44093

> <Toxicity>
0

> <Data Set>
TestSet

$$$$
2554
  SciTegic12242523262D

 30 32  0  0  0  0            999 V2000
    5.7490   -1.5350    0.0000 O   0  0
    4.8830   -0.0350    0.0000 N   0  0
    4.0170   -1.5350    0.0000 N   0  0
    3.9820    0.3990    0.0000 C   0  0
    5.7840    0.3990    0.0000 C   0  0
    3.7600    1.3740    0.0000 C   0  0
    6.0060    1.3740    0.0000 C   0  0
    4.3830    2.1550    0.0000 C   0  0
    5.3830    2.1550    0.0000 C   0  0
    3.2300   -0.3220    0.0000 C   0  0
    6.5360   -0.3220    0.0000 C   0  0
    2.7690    1.6960    0.0000 C   0  0
    6.9970    1.6960    0.0000 C   0  0
    4.8830   -1.0350    0.0000 C   0  0
    2.2320   -0.0220    0.0000 C   0  0
    7.5340   -0.0220    0.0000 C   0  0
    2.0000    0.9930    0.0000 C   0  0
    7.7660    0.9930    0.0000 C   0  0
    4.1140    2.7140    0.0000 H   0  0
    5.6520    2.7140    0.0000 H   0  0
    3.3740   -0.9240    0.0000 H   0  0
    6.3920   -0.9240    0.0000 H   0  0
    2.6380    2.3020    0.0000 H   0  0
    7.1280    2.3020    0.0000 H   0  0
    1.7790   -0.4460    0.0000 H   0  0
    7.9870   -0.4460    0.0000 H   0  0
    1.4080    1.1780    0.0000 H   0  0
    8.3580    1.1780    0.0000 H   0  0
    4.0170   -2.1550    0.0000 H   0  0
    3.4800   -1.2250    0.0000 H   0  0
  1 14  2  0
  2  4  1  0
  2  5  1  0
  2 14  1  0
  3 14  1  0
  3 29  1  0
  3 30  1  0
  4  6  2  0
  4 10  1  0
  5  7  2  0
  5 11  1  0
  6  8  1  0
  6 12  1  0
  7  9  1  0
  7 13  1  0
  8  9  2  0
  8 19  1  0
  9 20  1  0
 10 15  2  0
 10 21  1  0
 11 16  2  0
 11 22  1  0
 12 17  2  0
 12 23  1  0
 13 18  2  0
 13 24  1  0
 15 17  1  0
 15 25  1  0
 16 18  1  0
 16 26  1  0
 17 27  1  0
 18 28  1  0
M  END
> <Name>
2554

> <PUBCHEM_COMPOUND_CID>
2554

> <Toxicity>
0

> <Data Set>
TrainingSet

$$$$
2564
  SciTegic12242523262D

 39 40  0  0  1  0            999 V2000
    4.5980   -3.7500    0.0000 Cl  0  0
    3.7320    0.7500    0.0000 O   0  0
    2.8660    3.2500    0.0000 N   0  0
    5.4640    1.7500    0.0000 N   0  0
    4.5980    0.2500    0.0000 C   0  0
    3.7320    1.7500    0.0000 C   0  0
    2.8660    2.2500    0.0000 C   0  0
    4.5980   -0.7500    0.0000 C   0  0
    5.4640    0.7500    0.0000 C   0  0
    3.7320   -1.2500    0.0000 C   0  0
    5.4640   -1.2500    0.0000 C   0  0
    6.3300    0.2500    0.0000 C   0  0
    2.0000    3.7500    0.0000 C   0  0
    3.7320    3.7500    0.0000 C   0  0
    3.7320   -2.2500    0.0000 C   0  0
    5.4640   -2.2500    0.0000 C   0  0
    4.5980   -2.7500    0.0000 C   0  0
    7.1960    0.7500    0.0000 C   0  0
    6.3300    2.2500    0.0000 C   0  0
    7.1960    1.7500    0.0000 C   0  0
    4.5980    0.8700    0.0000 H   0  0
    4.3430    1.6420    0.0000 H   0  0
    3.9440    2.3330    0.0000 H   0  0
    2.2550    2.3580    0.0000 H   0  0
    2.6540    1.6670    0.0000 H   0  0
    3.1950   -0.9400    0.0000 H   0  0
    6.0010   -0.9400    0.0000 H   0  0
    6.3300   -0.3700    0.0000 H   0  0
    2.3100    4.2870    0.0000 H   0  0
    1.4630    4.0600    0.0000 H   0  0
    1.6900    3.2130    0.0000 H   0  0
    4.0420    3.2130    0.0000 H   0  0
    4.2690    4.0600    0.0000 H   0  0
    3.4220    4.2870    0.0000 H   0  0
    3.1950   -2.5600    0.0000 H   0  0
    6.0010   -2.5600    0.0000 H   0  0
    7.7330    0.4400    0.0000 H   0  0
    6.3300    2.8700    0.0000 H   0  0
    7.7330    2.0600    0.0000 H   0  0
  1 17  1  0
  2  5  1  0
  2  6  1  0
  3  7  1  0
  3 13  1  0
  3 14  1  0
  4  9  1  0
  4 19  2  0
  5  8  1  0
  5  9  1  0
  5 21  1  0
  6  7  1  0
  6 22  1  0
  6 23  1  0
  7 24  1  0
  7 25  1  0
  8 10  2  0
  8 11  1  0
  9 12  2  0
 10 15  1  0
 10 26  1  0
 11 16  2  0
 11 27  1  0
 12 18  1  0
 12 28  1  0
 13 29  1  0
 13 30  1  0
 13 31  1  0
 14 32  1  0
 14 33  1  0
 14 34  1  0
 15 17  2  0
 15 35  1  0
 16 17  1  0
 16 36  1  0
 18 20  2  0
 18 37  1  0
 19 20  1  0
 19 38  1  0
 20 39  1  0
M  END
> <Name>
2564

> <PUBCHEM_COMPOUND_CID>
2564

> <Toxicity>
0

> <Data Set>
TrainingSet

$$$$
11154555
  SciTegic12242523262D

 60 62  0  0  0  0            999 V2000
    2.0000   -4.2500    0.0000 Cl  0  0
    2.0000   -6.2500    0.0000 Cl  0  0
    6.3300    4.2500    0.0000 O   0  0
    3.7320   -1.2500    0.0000 N   0  0
    4.5980    4.2500    0.0000 N   0  0
    3.7320   -3.2500    0.0000 N   0  0
    5.4640    5.7500    0.0000 N   0  0
    4.5980    1.2500    0.0000 C   0  0
    3.7320    1.7500    0.0000 C   0  0
    5.4640    1.7500    0.0000 C   0  0
    4.5980    3.2500    0.0000 C   0  0
    3.7320    2.7500    0.0000 C   0  0
    5.4640    2.7500    0.0000 C   0  0
    4.5980    0.2500    0.0000 C   0  0
    3.7320   -0.2500    0.0000 C   0  0
    4.5980   -1.7500    0.0000 C   0  0
    2.8660   -1.7500    0.0000 C   0  0
    4.5980   -2.7500    0.0000 C   0  0
    2.8660   -2.7500    0.0000 C   0  0
    5.4640    4.7500    0.0000 C   0  0
    3.7320   -4.2500    0.0000 C   0  0
    2.8660   -4.7500    0.0000 C   0  0
    4.5980   -4.7500    0.0000 C   0  0
    6.3300    6.2500    0.0000 C   0  0
    4.5980    6.2500    0.0000 C   0  0
    2.8660   -5.7500    0.0000 C   0  0
    4.5980   -5.7500    0.0000 C   0  0
    3.7320   -6.2500    0.0000 C   0  0
    5.1350    0.9400    0.0000 H   0  0
    3.1220    1.8580    0.0000 H   0  0
    3.5200    1.1670    0.0000 H   0  0
    5.6760    1.1670    0.0000 H   0  0
    6.0750    1.8580    0.0000 H   0  0
    5.1350    3.5600    0.0000 H   0  0
    3.5200    3.3330    0.0000 H   0  0
    3.1220    2.6420    0.0000 H   0  0
    6.0750    2.6420    0.0000 H   0  0
    5.6760    3.3330    0.0000 H   0  0
    4.8100   -0.3330    0.0000 H   0  0
    5.2090    0.3580    0.0000 H   0  0
    3.5200    0.3330    0.0000 H   0  0
    3.1220   -0.3580    0.0000 H   0  0
    5.2090   -1.8580    0.0000 H   0  0
    4.8100   -1.1670    0.0000 H   0  0
    2.6540   -1.1670    0.0000 H   0  0
    2.2550   -1.8580    0.0000 H   0  0
    4.0610    4.5600    0.0000 H   0  0
    4.8100   -3.3330    0.0000 H   0  0
    5.2090   -2.6420    0.0000 H   0  0
    2.2550   -2.6420    0.0000 H   0  0
    2.6540   -3.3330    0.0000 H   0  0
    5.1350   -4.4400    0.0000 H   0  0
    6.6400    5.7130    0.0000 H   0  0
    6.8670    6.5600    0.0000 H   0  0
    6.0200    6.7870    0.0000 H   0  0
    4.9080    6.7870    0.0000 H   0  0
    4.0610    6.5600    0.0000 H   0  0
    4.2880    5.7130    0.0000 H   0  0
    5.1350   -6.0600    0.0000 H   0  0
    3.7320   -6.8700    0.0000 H   0  0
  1 22  1  0
  2 26  1  0
  3 20  2  0
  4 15  1  0
  4 16  1  0
  4 17  1  0
  5 11  1  0
  5 20  1  0
  5 47  1  0
  6 18  1  0
  6 19  1  0
  6 21  1  0
  7 20  1  0
  7 24  1  0
  7 25  1  0
  8  9  1  0
  8 10  1  0
  8 14  1  0
  8 29  1  0
  9 12  1  0
  9 30  1  0
  9 31  1  0
 10 13  1  0
 10 32  1  0
 10 33  1  0
 11 12  1  0
 11 13  1  0
 11 34  1  0
 12 35  1  0
 12 36  1  0
 13 37  1  0
 13 38  1  0
 14 15  1  0
 14 39  1  0
 14 40  1  0
 15 41  1  0
 15 42  1  0
 16 18  1  0
 16 43  1  0
 16 44  1  0
 17 19  1  0
 17 45  1  0
 17 46  1  0
 18 48  1  0
 18 49  1  0
 19 50  1  0
 19 51  1  0
 21 22  2  0
 21 23  1  0
 22 26  1  0
 23 27  2  0
 23 52  1  0
 24 53  1  0
 24 54  1  0
 24 55  1  0
 25 56  1  0
 25 57  1  0
 25 58  1  0
 26 28  2  0
 27 28  1  0
 27 59  1  0
 28 60  1  0
M  END
> <Name>
11154555

> <PUBCHEM_COMPOUND_CID>
11154555

> <Toxicity>
1

> <Data Set>
TrainingSet

$$$$
2578
  SciTegic12242523262D

 21 20  0  0  0  0            999 V2000
    2.0000    0.5000    0.0000 Cl  0  0
    8.9280    0.5000    0.0000 Cl  0  0
    5.4640    1.5000    0.0000 O   0  0
    3.7320   -1.5000    0.0000 O   0  0
    4.5980    0.0000    0.0000 N   0  0
    6.3300    0.0000    0.0000 N   0  0
    4.5980   -1.0000    0.0000 N   0  0
    3.7320    0.5000    0.0000 C   0  0
    7.1960    0.5000    0.0000 C   0  0
    5.4640    0.5000    0.0000 C   0  0
    2.8660    0.0000    0.0000 C   0  0
    8.0620    0.0000    0.0000 C   0  0
    4.1310    0.9750    0.0000 H   0  0
    3.3340    0.9750    0.0000 H   0  0
    7.5950    0.9750    0.0000 H   0  0
    6.7980    0.9750    0.0000 H   0  0
    6.3300   -0.6200    0.0000 H   0  0
    2.4680   -0.4750    0.0000 H   0  0
    3.2650   -0.4750    0.0000 H   0  0
    7.6640   -0.4750    0.0000 H   0  0
    8.4610   -0.4750    0.0000 H   0  0
  1 11  1  0
  2 12  1  0
  3 10  2  0
  4  7  2  0
  5  7  1  0
  5  8  1  0
  5 10  1  0
  6  9  1  0
  6 10  1  0
  6 17  1  0
  8 11  1  0
  8 13  1  0
  8 14  1  0
  9 12  1  0
  9 15  1  0
  9 16  1  0
 11 18  1  0
 11 19  1  0
 12 20  1  0
 12 21  1  0
M  END
> <Name>
2578

> <PUBCHEM_COMPOUND_CID>
2578

> <Toxicity>
1

> <Data Set>
TestSet

$$$$
47965
  SciTegic12242523262D

 42 44  0  0  1  0            999 V2000
    3.7320   -1.0250    0.0000 S   0  0
    6.3120    1.1870    0.0000 O   0  0
    7.5390   -0.0160    0.0000 O   0  0
    2.8660    2.4750    0.0000 O   0  0
    4.5980    2.4750    0.0000 O   0  0
   11.8500   -0.6620    0.0000 O   0  0
    4.5980    0.4750    0.0000 N   0  0
    6.3120   -1.2380    0.0000 N   0  0
    7.7230   -2.6550    0.0000 N   0  0
    4.5980   -0.5250    0.0000 C   0  0  1  0  0  0
    5.6060   -0.5300    0.0000 C   0  0  1  0  0  0
    5.6060    0.4790    0.0000 C   0  0
    3.7320    0.9750    0.0000 C   0  0
    2.8660   -0.5250    0.0000 C   0  0
    2.8660    0.4750    0.0000 C   0  0
    7.2780   -0.9810    0.0000 C   0  0
    2.0000    0.9750    0.0000 C   0  0
    3.7320    1.9750    0.0000 C   0  0
    7.9840   -1.6900    0.0000 C   0  0  1  0  0  0
    8.9510   -1.4330    0.0000 C   0  0
    9.6560   -2.1420    0.0000 C   0  0
    9.2110   -0.4680    0.0000 C   0  0
   10.6230   -1.8850    0.0000 C   0  0
   10.1780   -0.2110    0.0000 C   0  0
   10.8840   -0.9190    0.0000 C   0  0
    4.8160   -1.3470    0.0000 H   0  0
    5.3670   -1.1020    0.0000 H   0  0
    6.1500   -1.8370    0.0000 H   0  0
    2.2550   -0.4180    0.0000 H   0  0
    2.6540   -1.1080    0.0000 H   0  0
    2.3100    1.5120    0.0000 H   0  0
    1.4630    1.2850    0.0000 H   0  0
    1.6900    0.4380    0.0000 H   0  0
    7.3850   -1.8490    0.0000 H   0  0
    8.1610   -3.0950    0.0000 H   0  0
    7.1240   -2.8140    0.0000 H   0  0
    2.8660    3.0950    0.0000 H   0  0
    9.4940   -2.7400    0.0000 H   0  0
    8.7740   -0.0280    0.0000 H   0  0
   11.0600   -2.3240    0.0000 H   0  0
   10.3400    0.3880    0.0000 H   0  0
   12.2870   -1.1020    0.0000 H   0  0
  1 10  1  0
  1 14  1  0
  2 12  2  0
  3 16  2  0
  4 18  1  0
  4 37  1  0
  5 18  2  0
  6 25  1  0
  6 42  1  0
  7 10  1  0
  7 12  1  0
  7 13  1  0
 11  8  1  1
  8 16  1  0
  8 28  1  0
  9 19  1  0
  9 35  1  0
  9 36  1  0
 10 11  1  0
 10 26  1  6
 11 12  1  0
 11 27  1  6
 13 15  2  0
 13 18  1  0
 14 15  1  0
 14 29  1  0
 14 30  1  0
 15 17  1  0
 19 16  1  1
 17 31  1  0
 17 32  1  0
 17 33  1  0
 19 20  1  0
 19 34  1  6
 20 21  1  0
 20 22  2  0
 21 23  2  0
 21 38  1  0
 22 24  1  0
 22 39  1  0
 23 25  1  0
 23 40  1  0
 24 25  2  0
 24 41  1  0
M  END
> <Name>
47965

> <PUBCHEM_COMPOUND_CID>
47965

> <Toxicity>
0

> <Data Set>
TestSet

$$$$
33255
  SciTegic12242523262D

 43 46  0  0  1  0            999 V2000
    7.0470   -1.5410    0.0000 S   0  0
    4.4490   -0.0410    0.0000 S   0  0
    3.4780    1.4540    0.0000 S   0  0
    9.6270    0.6720    0.0000 O   0  0
    6.1810    1.9590    0.0000 O   0  0
    7.9130    1.9590    0.0000 O   0  0
   10.8540   -0.5310    0.0000 O   0  0
    7.9130   -0.0410    0.0000 N   0  0
    9.6270   -1.7540    0.0000 N   0  0
   12.2650   -1.9480    0.0000 N   0  0
   13.0410   -2.5790    0.0000 N   0  0
    2.6690    0.0520    0.0000 N   0  0
   13.6240   -1.0700    0.0000 N   0  0
   13.8810   -2.0360    0.0000 N   0  0
    2.0000    0.7960    0.0000 N   0  0
    7.9130   -1.0410    0.0000 C   0  0  1  0  0  0
    8.9210   -1.0450    0.0000 C   0  0  1  0  0  0
    8.9210   -0.0370    0.0000 C   0  0
    7.0470    0.4590    0.0000 C   0  0
    6.1810   -0.0410    0.0000 C   0  0
    6.1810   -1.0410    0.0000 C   0  0
    5.3150    0.4590    0.0000 C   0  0
    7.0470    1.4590    0.0000 C   0  0
   10.5930   -1.4970    0.0000 C   0  0
   11.2990   -2.2050    0.0000 C   0  0
    3.5830    0.4590    0.0000 C   0  0
   12.6260   -1.0160    0.0000 C   0  0
    2.5000    1.6620    0.0000 C   0  0
    2.0930    2.5750    0.0000 C   0  0
    8.1310   -1.8620    0.0000 H   0  0
    8.6820   -1.6170    0.0000 H   0  0
    5.5700   -0.9330    0.0000 H   0  0
    5.9690   -1.6230    0.0000 H   0  0
    9.4650   -2.3520    0.0000 H   0  0
    5.7130    0.9340    0.0000 H   0  0
    4.9160    0.9340    0.0000 H   0  0
   10.7900   -2.5600    0.0000 H   0  0
   11.5600   -2.7680    0.0000 H   0  0
    6.1810    2.5790    0.0000 H   0  0
   12.2890   -0.4950    0.0000 H   0  0
    2.6600    2.8270    0.0000 H   0  0
    1.8410    3.1420    0.0000 H   0  0
    1.5270    2.3230    0.0000 H   0  0
  1 16  1  0
  1 21  1  0
  2 22  1  0
  2 26  1  0
  3 26  1  0
  3 28  1  0
  4 18  2  0
  5 23  1  0
  5 39  1  0
  6 23  2  0
  7 24  2  0
  8 16  1  0
  8 18  1  0
  8 19  1  0
 17  9  1  1
  9 24  1  0
  9 34  1  0
 10 11  1  0
 10 25  1  0
 10 27  1  0
 11 14  2  0
 12 15  1  0
 12 26  2  0
 13 14  1  0
 13 27  2  0
 15 28  2  0
 16 17  1  0
 16 30  1  6
 17 18  1  0
 17 31  1  6
 19 20  2  0
 19 23  1  0
 20 21  1  0
 20 22  1  0
 21 32  1  0
 21 33  1  0
 22 35  1  0
 22 36  1  0
 24 25  1  0
 25 37  1  0
 25 38  1  0
 27 40  1  0
 28 29  1  0
 29 41  1  0
 29 42  1  0
 29 43  1  0
M  END
> <Name>
33255

> <PUBCHEM_COMPOUND_CID>
33255

> <Toxicity>
0

> <Data Set>
TrainingSet

$$$$
6915944
  SciTegic12242523262D

 39 41  0  0  1  0            999 V2000
    4.5980   -0.8170    0.0000 S   0  0
   11.4320   -1.3130    0.0000 S   0  0
    7.1780    1.3950    0.0000 O   0  0
    3.7320    2.6830    0.0000 O   0  0
    5.4640    2.6830    0.0000 O   0  0
    8.4050    0.1920    0.0000 O   0  0
    7.6230   -2.7040    0.0000 O   0  0
    5.4640    0.6830    0.0000 N   0  0
    7.1780   -1.0300    0.0000 N   0  0
    8.5890   -2.4470    0.0000 N   0  0
   10.1770   -0.2920    0.0000 N   0  0
   11.8060    0.4290    0.0000 N   0  0
    5.4640   -0.3170    0.0000 C   0  0  1  0  0  0
    6.4720   -0.3220    0.0000 C   0  0  1  0  0  0
    6.4720    0.6870    0.0000 C   0  0
    4.5980    1.1830    0.0000 C   0  0
    3.7320   -0.3170    0.0000 C   0  0
    3.7320    0.6830    0.0000 C   0  0
    4.5980    2.1830    0.0000 C   0  0
    8.1450   -0.7730    0.0000 C   0  0
    2.8660    1.1830    0.0000 C   0  0
    8.8500   -1.4820    0.0000 C   0  0
    2.0000    0.6830    0.0000 C   0  0
    9.8170   -1.2250    0.0000 C   0  0
   10.5920   -1.8560    0.0000 C   0  0
   11.1750   -0.3460    0.0000 C   0  0
    5.6820   -1.1390    0.0000 H   0  0
    6.2330   -0.8940    0.0000 H   0  0
    7.0160   -1.6290    0.0000 H   0  0
    3.1220   -0.2100    0.0000 H   0  0
    3.5200   -0.9000    0.0000 H   0  0
    2.8660    1.8030    0.0000 H   0  0
    1.4630    0.9930    0.0000 H   0  0
    2.0000    0.0630    0.0000 H   0  0
    3.7320    3.3030    0.0000 H   0  0
   10.5590   -2.4750    0.0000 H   0  0
    7.4610   -3.3030    0.0000 H   0  0
   12.4180    0.3310    0.0000 H   0  0
   11.5850    1.0090    0.0000 H   0  0
  1 13  1  0
  1 17  1  0
  2 25  1  0
  2 26  1  0
  3 15  2  0
  4 19  1  0
  4 35  1  0
  5 19  2  0
  6 20  2  0
  7 10  1  0
  7 37  1  0
  8 13  1  0
  8 15  1  0
  8 16  1  0
 14  9  1  1
  9 20  1  0
  9 29  1  0
 10 22  2  0
 11 24  1  0
 11 26  2  0
 12 26  1  0
 12 38  1  0
 12 39  1  0
 13 14  1  0
 13 27  1  6
 14 15  1  0
 14 28  1  6
 16 18  2  0
 16 19  1  0
 17 18  1  0
 17 30  1  0
 17 31  1  0
 18 21  1  0
 20 22  1  0
 21 23  2  0
 21 32  1  0
 22 24  1  0
 23 33  1  0
 23 34  1  0
 24 25  2  0
 25 36  1  0
M  END
> <Name>
6915944

> <PUBCHEM_COMPOUND_CID>
6915944

> <Toxicity>
0

> <Data Set>
TrainingSet

$$$$
5479537
  SciTegic12242523262D

 56 59  0  0  1  0            999 V2000
    5.6810   -0.3240    0.0000 S   0  0
   12.2580    0.1470    0.0000 S   0  0
    8.2610    1.8890    0.0000 O   0  0
    6.5470    3.1760    0.0000 O   0  5
    4.8150    3.1760    0.0000 O   0  0
    9.4880    0.6860    0.0000 O   0  0
    8.7060   -2.2110    0.0000 O   0  0
    3.0830    1.1760    0.0000 N   0  3
    6.5470    1.1760    0.0000 N   0  0
    8.2610   -0.5370    0.0000 N   0  0
    9.6720   -1.9540    0.0000 N   0  0
   11.6750   -1.3620    0.0000 N   0  0
   13.4480   -1.1800    0.0000 N   0  0
    2.1040    0.9680    0.0000 C   0  0
    3.5830    0.3100    0.0000 C   0  0
    3.9490    1.6760    0.0000 C   0  0
    2.0000   -0.0260    0.0000 C   0  0
    2.9140   -0.4330    0.0000 C   0  0
    2.8750    2.1540    0.0000 C   0  0
    4.8150    1.1760    0.0000 C   0  0
    6.5470    0.1760    0.0000 C   0  0  1  0  0  0
    7.5550    0.1720    0.0000 C   0  0  1  0  0  0
    5.6810    1.6760    0.0000 C   0  0
    4.8150    0.1760    0.0000 C   0  0
    7.5550    1.1800    0.0000 C   0  0
    5.6810    2.6760    0.0000 C   0  0
    9.2270   -0.2800    0.0000 C   0  0
    9.9330   -0.9880    0.0000 C   0  0
   10.8990   -0.7320    0.0000 C   0  0
   11.2600    0.2010    0.0000 C   0  0
   12.5150   -0.8200    0.0000 C   0  0
    8.4450   -3.1760    0.0000 C   0  0
    2.0400    1.5850    0.0000 H   0  0
    1.4840    0.9680    0.0000 H   0  0
    3.9980   -0.1510    0.0000 H   0  0
    4.0840    0.6740    0.0000 H   0  0
    4.3470    2.1510    0.0000 H   0  0
    3.5500    2.1510    0.0000 H   0  0
    1.3940    0.1020    0.0000 H   0  0
    1.8080   -0.6160    0.0000 H   0  0
    2.6040   -0.9700    0.0000 H   0  0
    3.4150   -0.7980    0.0000 H   0  0
    3.4810    2.2830    0.0000 H   0  0
    2.7460    2.7610    0.0000 H   0  0
    2.2680    2.0250    0.0000 H   0  0
    6.7650   -0.6460    0.0000 H   0  0
    8.1280    0.4090    0.0000 H   0  0
    4.2040    0.2840    0.0000 H   0  0
    4.6030   -0.4070    0.0000 H   0  0
    8.0990   -1.1350    0.0000 H   0  0
   10.9230    0.7220    0.0000 H   0  0
    7.8460   -3.0140    0.0000 H   0  0
    8.2830   -3.7750    0.0000 H   0  0
    9.0430   -3.3380    0.0000 H   0  0
   13.9300   -0.7910    0.0000 H   0  0
   13.5440   -1.7920    0.0000 H   0  0
  1 21  1  0
  1 24  1  0
  2 30  1  0
  2 31  1  0
  3 25  2  0
  4 26  1  0
  5 26  2  0
  6 27  2  0
  7 11  1  0
  7 32  1  0
  8 14  1  0
  8 15  1  0
  8 16  1  0
  8 19  1  0
  9 21  1  0
  9 23  1  0
  9 25  1  0
 22 10  1  1
 10 27  1  0
 10 50  1  0
 11 28  2  0
 12 29  1  0
 12 31  2  0
 13 31  1  0
 13 55  1  0
 13 56  1  0
 14 17  1  0
 14 33  1  0
 14 34  1  0
 15 18  1  0
 15 35  1  0
 15 36  1  0
 16 20  1  0
 16 37  1  0
 16 38  1  0
 17 18  1  0
 17 39  1  0
 17 40  1  0
 18 41  1  0
 18 42  1  0
 19 43  1  0
 19 44  1  0
 19 45  1  0
 20 23  2  0
 20 24  1  0
 21 22  1  0
 21 46  1  6
 22 25  1  0
 22 47  1  6
 23 26  1  0
 24 48  1  0
 24 49  1  0
 27 28  1  0
 28 29  1  0
 29 30  2  0
 30 51  1  0
 32 52  1  0
 32 53  1  0
 32 54  1  0
M  CHG  2   4  -1   8   1
M  END
> <Name>
5479537

> <PUBCHEM_COMPOUND_CID>
5479537

> <Toxicity>
0

> <Data Set>
TrainingSet

$$$$
5362065
  SciTegic12242523262D

 45 47  0  0  1  0            999 V2000
    4.5980    0.4230    0.0000 S   0  0
   11.4320   -0.0730    0.0000 S   0  0
    7.1780    2.6350    0.0000 O   0  0
    3.7320    3.9230    0.0000 O   0  0
    5.4640    3.9230    0.0000 O   0  0
    8.4050    1.4320    0.0000 O   0  0
    7.6230   -1.4640    0.0000 O   0  0
    7.8070   -4.1030    0.0000 O   0  0
    9.0340   -2.8810    0.0000 O   0  0
    5.4640    1.9230    0.0000 N   0  0
    7.1780    0.2100    0.0000 N   0  0
    8.5890   -1.2070    0.0000 N   0  0
   10.1770    0.9480    0.0000 N   0  0
   11.8060    1.6690    0.0000 N   0  0
    5.4640    0.9230    0.0000 C   0  0  1  0  0  0
    6.4720    0.9180    0.0000 C   0  0  1  0  0  0
    6.4720    1.9270    0.0000 C   0  0
    4.5980    2.4230    0.0000 C   0  0
    3.7320    0.9230    0.0000 C   0  0
    3.7320    1.9230    0.0000 C   0  0
    4.5980    3.4230    0.0000 C   0  0
    8.1450    0.4670    0.0000 C   0  0
    2.8660    2.4230    0.0000 C   0  0
    8.8500   -0.2420    0.0000 C   0  0
    2.0000    1.9230    0.0000 C   0  0
    9.8170    0.0150    0.0000 C   0  0
   10.5920   -0.6160    0.0000 C   0  0
   11.1750    0.8940    0.0000 C   0  0
    7.3620   -2.4290    0.0000 C   0  0
    8.0680   -3.1380    0.0000 C   0  0
    5.6820    0.1010    0.0000 H   0  0
    6.2330    0.3460    0.0000 H   0  0
    7.0160   -0.3890    0.0000 H   0  0
    3.1220    1.0300    0.0000 H   0  0
    3.5200    0.3400    0.0000 H   0  0
    2.8660    3.0430    0.0000 H   0  0
    1.4630    2.2330    0.0000 H   0  0
    2.0000    1.3030    0.0000 H   0  0
    3.7320    4.5430    0.0000 H   0  0
   10.5590   -1.2350    0.0000 H   0  0
    6.8010   -2.1660    0.0000 H   0  0
    7.0050   -2.9360    0.0000 H   0  0
   12.4180    1.5710    0.0000 H   0  0
   11.5850    2.2490    0.0000 H   0  0
    8.2440   -4.5430    0.0000 H   0  0
  1 15  1  0
  1 19  1  0
  2 27  1  0
  2 28  1  0
  3 17  2  0
  4 21  1  0
  4 39  1  0
  5 21  2  0
  6 22  2  0
  7 12  1  0
  7 29  1  0
  8 30  1  0
  8 45  1  0
  9 30  2  0
 10 15  1  0
 10 17  1  0
 10 18  1  0
 16 11  1  1
 11 22  1  0
 11 33  1  0
 12 24  2  0
 13 26  1  0
 13 28  2  0
 14 28  1  0
 14 43  1  0
 14 44  1  0
 15 16  1  0
 15 31  1  6
 16 17  1  0
 16 32  1  6
 18 20  2  0
 18 21  1  0
 19 20  1  0
 19 34  1  0
 19 35  1  0
 20 23  1  0
 22 24  1  0
 23 25  2  0
 23 36  1  0
 24 26  1  0
 25 37  1  0
 25 38  1  0
 26 27  2  0
 27 40  1  0
 29 30  1  0
 29 41  1  0
 29 42  1  0
M  END
> <Name>
5362065

> <PUBCHEM_COMPOUND_CID>
5362065

> <Toxicity>
0

> <Data Set>
TrainingSet

$$$$
5742673
  SciTegic12242523262D

 47 49  0  0  1  0            999 V2000
    6.3300   -0.6340    0.0000 S   0  0
   13.1640   -1.1300    0.0000 S   0  0
    8.9100    1.5790    0.0000 O   0  0
    3.7320    0.8660    0.0000 O   0  0
    5.4640    2.8660    0.0000 O   0  0
    7.1960    2.8660    0.0000 O   0  0
   10.1370    0.3760    0.0000 O   0  0
    9.3550   -2.5210    0.0000 O   0  0
    2.8660    2.3660    0.0000 O   0  0
    7.1960    0.8660    0.0000 N   0  0
    8.9100   -0.8470    0.0000 N   0  0
   10.3210   -2.2640    0.0000 N   0  0
   11.9090   -0.1090    0.0000 N   0  0
   13.5380    0.6130    0.0000 N   0  0
    7.1960   -0.1340    0.0000 C   0  0  1  0  0  0
    8.2040   -0.1380    0.0000 C   0  0  1  0  0  0
    8.2040    0.8700    0.0000 C   0  0
    6.3300    1.3660    0.0000 C   0  0
    5.4640    0.8660    0.0000 C   0  0
    5.4640   -0.1340    0.0000 C   0  0
    4.5980    1.3660    0.0000 C   0  0
    6.3300    2.3660    0.0000 C   0  0
    9.8760   -0.5900    0.0000 C   0  0
   10.5820   -1.2980    0.0000 C   0  0
   11.5490   -1.0420    0.0000 C   0  0
    2.8660    1.3660    0.0000 C   0  0
   12.3240   -1.6720    0.0000 C   0  0
    2.0000    0.8660    0.0000 C   0  0
   12.9080   -0.1630    0.0000 C   0  0
    9.0940   -3.4860    0.0000 C   0  0
    7.4140   -0.9560    0.0000 H   0  0
    7.9650   -0.7100    0.0000 H   0  0
    4.8540   -0.0260    0.0000 H   0  0
    5.2520   -0.7170    0.0000 H   0  0
    8.7480   -1.4450    0.0000 H   0  0
    4.9970    1.8410    0.0000 H   0  0
    4.2000    1.8410    0.0000 H   0  0
    5.4640    3.4860    0.0000 H   0  0
   12.2910   -2.2920    0.0000 H   0  0
    1.6900    1.4030    0.0000 H   0  0
    1.4630    0.5560    0.0000 H   0  0
    2.3100    0.3290    0.0000 H   0  0
    8.4960   -3.3240    0.0000 H   0  0
    8.9320   -4.0850    0.0000 H   0  0
    9.6930   -3.6480    0.0000 H   0  0
   14.1500    0.5140    0.0000 H   0  0
   13.3170    1.1920    0.0000 H   0  0
  1 15  1  0
  1 20  1  0
  2 27  1  0
  2 29  1  0
  3 17  2  0
  4 21  1  0
  4 26  1  0
  5 22  1  0
  5 38  1  0
  6 22  2  0
  7 23  2  0
  8 12  1  0
  8 30  1  0
  9 26  2  0
 10 15  1  0
 10 17  1  0
 10 18  1  0
 16 11  1  1
 11 23  1  0
 11 35  1  0
 12 24  2  0
 13 25  1  0
 13 29  2  0
 14 29  1  0
 14 46  1  0
 14 47  1  0
 15 16  1  0
 15 31  1  6
 16 17  1  0
 16 32  1  6
 18 19  2  0
 18 22  1  0
 19 20  1  0
 19 21  1  0
 20 33  1  0
 20 34  1  0
 21 36  1  0
 21 37  1  0
 23 24  1  0
 24 25  1  0
 25 27  2  0
 26 28  1  0
 27 39  1  0
 28 40  1  0
 28 41  1  0
 28 42  1  0
 30 43  1  0
 30 44  1  0
 30 45  1  0
M  END
> <Name>
5742673

> <PUBCHEM_COMPOUND_CID>
5742673

> <Toxicity>
0

> <Data Set>
TrainingSet

$$$$
53025
  SciTegic12242523262D

 53 56  0  0  1  0            999 V2000
    7.0470   -1.3720    0.0000 S   0  0
    4.4490    0.1280    0.0000 S   0  0
   11.4210   -0.7480    0.0000 S   0  0
   12.4190   -1.7500    0.0000 S   0  0
    8.9190   -1.8760    0.0000 O   0  0
    9.6270    0.8400    0.0000 O   0  0
    6.1810    2.1280    0.0000 O   0  0
    9.9180   -2.6110    0.0000 O   0  0
    7.9130    2.1280    0.0000 O   0  0
   13.5820    1.6280    0.0000 O   0  0
   14.3520   -1.2710    0.0000 O   0  0
   11.9080    1.1830    0.0000 O   0  0
    7.9130    0.1280    0.0000 N   0  0
    9.9210   -0.8780    0.0000 N   0  0
    3.4780    1.6220    0.0000 N   0  0
    2.6690    0.2210    0.0000 N   0  0
    2.5000    1.8300    0.0000 N   0  0
    2.0000    0.9640    0.0000 N   0  0
   14.8040    0.4010    0.0000 N   0  0
    8.9210   -0.8760    0.0000 C   0  0  2  0  0  0
    7.9130   -0.8720    0.0000 C   0  0  1  0  0  0
    8.9210    0.1320    0.0000 C   0  0
    7.0470    0.6280    0.0000 C   0  0
    6.1810    0.1280    0.0000 C   0  0
    6.1810   -0.8720    0.0000 C   0  0
   10.4190   -1.7460    0.0000 C   0  0
    5.3150    0.6280    0.0000 C   0  0
    7.0470    1.6280    0.0000 C   0  0
    8.0520   -2.3750    0.0000 C   0  0
   11.4190   -1.7480    0.0000 C   0  0
   12.4210   -0.7500    0.0000 C   0  0
    3.5830    0.6280    0.0000 C   0  0
   13.1300   -0.0440    0.0000 C   0  0
   14.0950   -0.3050    0.0000 C   0  0
   12.8730    0.9220    0.0000 C   0  0
    4.2210    2.2910    0.0000 C   0  0
    8.1310   -1.6940    0.0000 H   0  0
   10.2320   -0.3420    0.0000 H   0  0
    5.5700   -0.7650    0.0000 H   0  0
    5.9690   -1.4550    0.0000 H   0  0
    5.7130    1.1030    0.0000 H   0  0
    4.9160    1.1030    0.0000 H   0  0
    7.7430   -1.8370    0.0000 H   0  0
    7.5140   -2.6840    0.0000 H   0  0
    8.3610   -2.9120    0.0000 H   0  0
   11.4170   -2.7480    0.0000 H   0  0
    6.1810    2.7480    0.0000 H   0  0
    4.6360    1.8310    0.0000 H   0  0
    4.6820    2.7060    0.0000 H   0  0
    3.8060    2.7520    0.0000 H   0  0
   15.4020    0.2390    0.0000 H   0  0
   14.6450    1.0000    0.0000 H   0  0
   13.4220    2.2270    0.0000 H   0  0
  1 21  1  0
  1 25  1  0
  2 27  1  0
  2 32  1  0
  3 30  1  0
  3 31  1  0
  4 30  1  0
  4 31  1  0
 20  5  1  6
  5 29  1  0
  6 22  2  0
  7 28  1  0
  7 47  1  0
  8 26  2  0
  9 28  2  0
 10 35  1  0
 10 53  1  0
 11 34  2  0
 12 35  2  0
 13 21  1  0
 13 22  1  0
 13 23  1  0
 20 14  1  1
 14 26  1  0
 14 38  1  0
 15 17  1  0
 15 32  1  0
 15 36  1  0
 16 18  1  0
 16 32  2  0
 17 18  2  0
 19 34  1  0
 19 51  1  0
 19 52  1  0
 20 21  1  0
 20 22  1  0
 21 37  1  6
 23 24  2  0
 23 28  1  0
 24 25  1  0
 24 27  1  0
 25 39  1  0
 25 40  1  0
 26 30  1  0
 27 41  1  0
 27 42  1  0
 29 43  1  0
 29 44  1  0
 29 45  1  0
 30 46  1  0
 31 33  2  0
 33 34  1  0
 33 35  1  0
 36 48  1  0
 36 49  1  0
 36 50  1  0
M  END
> <Name>
53025

> <PUBCHEM_COMPOUND_CID>
53025

> <Toxicity>
0

> <Data Set>
TrainingSet

$$$$
441199
  SciTegic12242523262D

 45 47  0  0  1  0            999 V2000
    6.8670   -0.6470    0.0000 S   0  0
   11.3290   -2.8020    0.0000 S   0  0
    8.7390   -1.1510    0.0000 O   0  0
    9.4470    1.5660    0.0000 O   0  0
    4.2690    0.8530    0.0000 O   0  0
    6.0010    2.8530    0.0000 O   0  0
    9.7380   -1.8850    0.0000 O   0  0
    7.7330    2.8530    0.0000 O   0  0
    3.4030    2.3530    0.0000 O   0  0
    7.7330    0.8530    0.0000 N   0  0
    9.7410   -0.1530    0.0000 N   0  0
    2.5370    0.8530    0.0000 N   0  0
    8.7410   -0.1510    0.0000 C   0  0  2  0  0  0
    7.7330   -0.1470    0.0000 C   0  0  1  0  0  0
    8.7410    0.8570    0.0000 C   0  0
    6.8670    1.3530    0.0000 C   0  0
    6.0010    0.8530    0.0000 C   0  0
    6.0010   -0.1470    0.0000 C   0  0
    5.1350    1.3530    0.0000 C   0  0
   10.2400   -1.0200    0.0000 C   0  0
    6.8670    2.3530    0.0000 C   0  0
    7.8720   -1.6500    0.0000 C   0  0
   11.2400   -1.0220    0.0000 C   0  0
   11.7380   -1.8900    0.0000 C   0  0
   12.7320   -1.9960    0.0000 C   0  0
    3.4030    1.3530    0.0000 C   0  0
   12.9380   -2.9750    0.0000 C   0  0
   12.0710   -3.4730    0.0000 C   0  0
    7.9510   -0.9690    0.0000 H   0  0
   10.0520    0.3830    0.0000 H   0  0
    5.3900   -0.0400    0.0000 H   0  0
    5.7890   -0.7300    0.0000 H   0  0
    5.5340    1.8280    0.0000 H   0  0
    4.7360    1.8280    0.0000 H   0  0
    7.5630   -1.1120    0.0000 H   0  0
    7.3350   -1.9580    0.0000 H   0  0
    8.1810   -2.1870    0.0000 H   0  0
   11.8230   -0.8120    0.0000 H   0  0
   11.1330   -0.4120    0.0000 H   0  0
    6.0010    3.4730    0.0000 H   0  0
   13.1480   -1.5360    0.0000 H   0  0
   13.5040   -3.2280    0.0000 H   0  0
   12.0050   -4.0890    0.0000 H   0  0
    2.0000    1.1630    0.0000 H   0  0
    2.5370    0.2330    0.0000 H   0  0
  1 14  1  0
  1 18  1  0
  2 24  1  0
  2 28  1  0
 13  3  1  6
  3 22  1  0
  4 15  2  0
  5 19  1  0
  5 26  1  0
  6 21  1  0
  6 40  1  0
  7 20  2  0
  8 21  2  0
  9 26  2  0
 10 14  1  0
 10 15  1  0
 10 16  1  0
 13 11  1  1
 11 20  1  0
 11 30  1  0
 12 26  1  0
 12 44  1  0
 12 45  1  0
 13 14  1  0
 13 15  1  0
 14 29  1  6
 16 17  2  0
 16 21  1  0
 17 18  1  0
 17 19  1  0
 18 31  1  0
 18 32  1  0
 19 33  1  0
 19 34  1  0
 20 23  1  0
 22 35  1  0
 22 36  1  0
 22 37  1  0
 23 24  1  0
 23 38  1  0
 23 39  1  0
 24 25  2  0
 25 27  1  0
 25 41  1  0
 27 28  2  0
 27 42  1  0
 28 43  1  0
M  END
> <Name>
441199

> <PUBCHEM_COMPOUND_CID>
441199

> <Toxicity>
0

> <Data Set>
TrainingSet

$$$$
6526396
  SciTegic12242523262D

 64 66  0  0  1  0            999 V2000
    5.4640   -2.5740    0.0000 S   0  0
   12.2980   -3.0700    0.0000 S   0  0
    8.0440   -0.3610    0.0000 O   0  0
    4.5980    0.9260    0.0000 O   0  0
    2.8660   -1.0740    0.0000 O   0  0
    6.3300    0.9260    0.0000 O   0  0
    9.2710   -1.5640    0.0000 O   0  0
    3.7320    2.4260    0.0000 O   0  0
    8.4890   -4.4610    0.0000 O   0  0
    2.8660    3.9260    0.0000 O   0  0
    4.5980    3.9260    0.0000 O   0  0
    6.3300   -1.0740    0.0000 N   0  0
    8.0440   -2.7870    0.0000 N   0  0
    9.4550   -4.2040    0.0000 N   0  0
   11.0430   -2.0490    0.0000 N   0  0
   12.6720   -1.3270    0.0000 N   0  0
    6.3300   -2.0740    0.0000 C   0  0  1  0  0  0
    7.3380   -2.0780    0.0000 C   0  0  1  0  0  0
    7.3380   -1.0700    0.0000 C   0  0
    5.4640   -0.5740    0.0000 C   0  0
    4.5980   -1.0740    0.0000 C   0  0
    4.5980   -2.0740    0.0000 C   0  0
    3.7320   -0.5740    0.0000 C   0  0
    5.4640    0.4260    0.0000 C   0  0
    9.0100   -2.5300    0.0000 C   0  0
    9.7160   -3.2380    0.0000 C   0  0
    4.5980    1.9260    0.0000 C   0  0
    2.0000   -0.5740    0.0000 C   0  0
   10.6830   -2.9820    0.0000 C   0  0
    5.4640    2.4260    0.0000 C   0  0
   11.4580   -3.6120    0.0000 C   0  0
   12.0410   -2.1030    0.0000 C   0  0
    3.7320    3.4260    0.0000 C   0  0
    2.8660    4.9260    0.0000 C   0  0
    8.2280   -5.4260    0.0000 C   0  0
    2.0000    5.4260    0.0000 C   0  0
    3.7320    5.4260    0.0000 C   0  0
    6.5480   -2.8960    0.0000 H   0  0
    7.9120   -1.8420    0.0000 H   0  0
    3.9880   -1.9660    0.0000 H   0  0
    4.3860   -2.6570    0.0000 H   0  0
    7.8820   -3.3850    0.0000 H   0  0
    4.1310   -0.0990    0.0000 H   0  0
    3.3340   -0.0990    0.0000 H   0  0
    4.5980    2.5460    0.0000 H   0  0
    2.3100   -0.0370    0.0000 H   0  0
    1.4630   -0.2640    0.0000 H   0  0
    1.6900   -1.1110    0.0000 H   0  0
    5.7740    1.8890    0.0000 H   0  0
    6.0010    2.7360    0.0000 H   0  0
    5.1540    2.9630    0.0000 H   0  0
   11.4250   -4.2320    0.0000 H   0  0
    3.4030    4.6160    0.0000 H   0  0
    7.6300   -5.2640    0.0000 H   0  0
    8.0660   -6.0250    0.0000 H   0  0
    8.8270   -5.5880    0.0000 H   0  0
   13.2840   -1.4260    0.0000 H   0  0
   12.4510   -0.7480    0.0000 H   0  0
    2.3100    5.9630    0.0000 H   0  0
    1.4630    5.7360    0.0000 H   0  0
    1.6900    4.8890    0.0000 H   0  0
    4.0420    4.8890    0.0000 H   0  0
    4.2690    5.7360    0.0000 H   0  0
    3.4220    5.9630    0.0000 H   0  0
  1 17  1  0
  1 22  1  0
  2 31  1  0
  2 32  1  0
  3 19  2  0
  4 24  1  0
  4 27  1  0
  5 23  1  0
  5 28  1  0
  6 24  2  0
  7 25  2  0
  8 27  1  0
  8 33  1  0
  9 14  1  0
  9 35  1  0
 10 33  1  0
 10 34  1  0
 11 33  2  0
 12 17  1  0
 12 19  1  0
 12 20  1  0
 18 13  1  1
 13 25  1  0
 13 42  1  0
 14 26  2  0
 15 29  1  0
 15 32  2  0
 16 32  1  0
 16 57  1  0
 16 58  1  0
 17 18  1  0
 17 38  1  6
 18 19  1  0
 18 39  1  6
 20 21  2  0
 20 24  1  0
 21 22  1  0
 21 23  1  0
 22 40  1  0
 22 41  1  0
 23 43  1  0
 23 44  1  0
 25 26  1  0
 26 29  1  0
 27 30  1  0
 27 45  1  0
 28 46  1  0
 28 47  1  0
 28 48  1  0
 29 31  2  0
 30 49  1  0
 30 50  1  0
 30 51  1  0
 31 52  1  0
 34 36  1  0
 34 37  1  0
 34 53  1  0
 35 54  1  0
 35 55  1  0
 35 56  1  0
 36 59  1  0
 36 60  1  0
 36 61  1  0
 37 62  1  0
 37 63  1  0
 37 64  1  0
M  END
> <Name>
6526396

> <PUBCHEM_COMPOUND_CID>
6526396

> <Toxicity>
0

> <Data Set>
TrainingSet

$$$$
5281006
  SciTegic12242523262D

 46 48  0  0  1  0            999 V2000
    5.4640   -1.0250    0.0000 S   0  0
    8.0440    1.1870    0.0000 O   0  0
    9.2710   -0.0160    0.0000 O   0  0
    6.3300    2.4750    0.0000 O   0  0
    4.5980    2.4750    0.0000 O   0  0
   13.5820   -0.6620    0.0000 O   0  0
    6.3300    0.4750    0.0000 N   0  0
    8.0440   -1.2380    0.0000 N   0  0
    9.4550   -2.6550    0.0000 N   0  0
    6.3300   -0.5250    0.0000 C   0  0  1  0  0  0
    7.3380   -0.5300    0.0000 C   0  0  1  0  0  0
    7.3380    0.4790    0.0000 C   0  0
    5.4640    0.9750    0.0000 C   0  0
    4.5980   -0.5250    0.0000 C   0  0
    4.5980    0.4750    0.0000 C   0  0
    9.0100   -0.9810    0.0000 C   0  0
    5.4640    1.9750    0.0000 C   0  0
    9.7160   -1.6900    0.0000 C   0  0  1  0  0  0
    3.7320    0.9750    0.0000 C   0  0
   10.6830   -1.4330    0.0000 C   0  0
    2.8660    0.4750    0.0000 C   0  0
   11.3880   -2.1420    0.0000 C   0  0
   10.9430   -0.4680    0.0000 C   0  0
    2.0000    0.9750    0.0000 C   0  0
   12.3550   -1.8850    0.0000 C   0  0
   11.9100   -0.2110    0.0000 C   0  0
   12.6160   -0.9190    0.0000 C   0  0
    6.5480   -1.3470    0.0000 H   0  0
    7.9120   -0.2930    0.0000 H   0  0
    7.8820   -1.8370    0.0000 H   0  0
    3.9880   -0.4180    0.0000 H   0  0
    4.3860   -1.1080    0.0000 H   0  0
   10.1540   -2.1290    0.0000 H   0  0
    3.7320    1.5950    0.0000 H   0  0
    2.8660   -0.1450    0.0000 H   0  0
    9.8930   -3.0950    0.0000 H   0  0
    8.8560   -2.8140    0.0000 H   0  0
    6.3300    3.0950    0.0000 H   0  0
   11.2270   -2.7400    0.0000 H   0  0
   10.5060   -0.0280    0.0000 H   0  0
    2.3100    1.5120    0.0000 H   0  0
    1.4630    1.2850    0.0000 H   0  0
    1.6900    0.4380    0.0000 H   0  0
   12.7920   -2.3240    0.0000 H   0  0
   12.0720    0.3880    0.0000 H   0  0
   14.0200   -1.1020    0.0000 H   0  0
  1 10  1  0
  1 14  1  0
  2 12  2  0
  3 16  2  0
  4 17  1  0
  4 38  1  0
  5 17  2  0
  6 27  1  0
  6 46  1  0
  7 10  1  0
  7 12  1  0
  7 13  1  0
 11  8  1  1
  8 16  1  0
  8 30  1  0
 18  9  1  1
  9 36  1  0
  9 37  1  0
 10 11  1  0
 10 28  1  6
 11 12  1  0
 11 29  1  6
 13 15  2  0
 13 17  1  0
 14 15  1  0
 14 31  1  0
 14 32  1  0
 15 19  1  0
 16 18  1  0
 18 20  1  0
 18 33  1  6
 19 21  2  0
 19 34  1  0
 20 22  1  0
 20 23  2  0
 21 24  1  0
 21 35  1  0
 22 25  2  0
 22 39  1  0
 23 26  1  0
 23 40  1  0
 24 41  1  0
 24 42  1  0
 24 43  1  0
 25 27  1  0
 25 44  1  0
 26 27  2  0
 26 45  1  0
M  END
> <Name>
5281006

> <PUBCHEM_COMPOUND_CID>
5281006

> <Toxicity>
0

> <Data Set>
TestSet

$$$$
5481173
  SciTegic12242523262D

 59 62  0  0  1  0            999 V2000
    6.3300    0.8120    0.0000 S   0  0
   12.9080    1.2830    0.0000 S   0  0
    8.9100    3.0250    0.0000 O   0  0
    5.4640    4.3120    0.0000 O   0  5
    7.1960    4.3120    0.0000 O   0  0
   10.1370    1.8220    0.0000 O   0  0
    9.3550   -1.0740    0.0000 O   0  0
    9.5390   -3.7140    0.0000 O   0  0
    7.8670   -3.2620    0.0000 O   0  0
    7.1960    2.3120    0.0000 N   0  0
    8.9100    0.6000    0.0000 N   0  0
    3.7320    2.3120    0.0000 N   0  3
   10.3210   -0.8180    0.0000 N   0  0
   12.3240   -0.2260    0.0000 N   0  0
   14.0970   -0.0440    0.0000 N   0  0
    7.1960    1.3120    0.0000 C   0  0  1  0  0  0
    8.2040    1.3080    0.0000 C   0  0  1  0  0  0
    8.2040    2.3160    0.0000 C   0  0
    6.3300    2.8120    0.0000 C   0  0
    5.4640    2.3120    0.0000 C   0  0
    5.4640    1.3120    0.0000 C   0  0
    4.5980    2.8120    0.0000 C   0  0
    6.3300    3.8120    0.0000 C   0  0
    9.8760    0.8560    0.0000 C   0  0
   10.5820    0.1480    0.0000 C   0  0
    3.7320    1.3120    0.0000 C   0  0
    2.8660    2.8120    0.0000 C   0  0
   11.5490    0.4050    0.0000 C   0  0
    2.8660    0.8120    0.0000 C   0  0
    2.0000    2.3120    0.0000 C   0  0
    2.0000    1.3120    0.0000 C   0  0
    9.0940   -2.0400    0.0000 C   0  0
   11.9090    1.3380    0.0000 C   0  0
   10.0600   -2.3010    0.0000 C   0  0
    8.1290   -1.7790    0.0000 C   0  0
    8.8330   -3.0050    0.0000 C   0  0
   13.1640    0.3170    0.0000 C   0  0
    7.4140    0.4910    0.0000 H   0  0
    7.9650    0.7360    0.0000 H   0  0
    4.8540    1.4200    0.0000 H   0  0
    5.2520    0.7300    0.0000 H   0  0
    8.7480    0.0010    0.0000 H   0  0
    4.9970    3.2870    0.0000 H   0  0
    4.2000    3.2870    0.0000 H   0  0
    4.2690    1.0020    0.0000 H   0  0
    2.8660    3.4320    0.0000 H   0  0
    2.8660    0.1920    0.0000 H   0  0
    1.4630    2.6220    0.0000 H   0  0
    1.4630    1.0020    0.0000 H   0  0
   11.5720    1.8580    0.0000 H   0  0
    9.8980   -2.8990    0.0000 H   0  0
   10.6580   -2.4620    0.0000 H   0  0
   10.2210   -1.7020    0.0000 H   0  0
    8.2900   -1.1800    0.0000 H   0  0
    7.5300   -1.6170    0.0000 H   0  0
    7.9670   -2.3780    0.0000 H   0  0
   14.5800    0.3460    0.0000 H   0  0
   14.1930   -0.6560    0.0000 H   0  0
    9.3770   -4.3120    0.0000 H   0  0
  1 16  1  0
  1 21  1  0
  2 33  1  0
  2 37  1  0
  3 18  2  0
  4 23  1  0
  5 23  2  0
  6 24  2  0
  7 13  1  0
  7 32  1  0
  8 36  1  0
  8 59  1  0
  9 36  2  0
 10 16  1  0
 10 18  1  0
 10 19  1  0
 17 11  1  1
 11 24  1  0
 11 42  1  0
 12 22  1  0
 12 26  2  0
 12 27  1  0
 13 25  2  0
 14 28  1  0
 14 37  2  0
 15 37  1  0
 15 57  1  0
 15 58  1  0
 16 17  1  0
 16 38  1  6
 17 18  1  0
 17 39  1  6
 19 20  2  0
 19 23  1  0
 20 21  1  0
 20 22  1  0
 21 40  1  0
 21 41  1  0
 22 43  1  0
 22 44  1  0
 24 25  1  0
 25 28  1  0
 26 29  1  0
 26 45  1  0
 27 30  2  0
 27 46  1  0
 28 33  2  0
 29 31  2  0
 29 47  1  0
 30 31  1  0
 30 48  1  0
 31 49  1  0
 32 34  1  0
 32 35  1  0
 32 36  1  0
 33 50  1  0
 34 51  1  0
 34 52  1  0
 34 53  1  0
 35 54  1  0
 35 55  1  0
 35 56  1  0
M  CHG  2   4  -1  12   1
M  END
> <Name>
5481173

> <PUBCHEM_COMPOUND_CID>
5481173

> <Toxicity>
0

> <Data Set>
TrainingSet

$$$$
5479530
  SciTegic12242523262D

 54 57  0  0  1  0            999 V2000
    8.0620   -0.8240    0.0000 S   0  0
    5.4640    0.6760    0.0000 S   0  0
   14.6400   -0.3530    0.0000 S   0  0
   10.6420    1.3890    0.0000 O   0  0
    7.1960    2.6760    0.0000 O   0  0
    8.9280    2.6760    0.0000 O   0  0
   11.8690    0.1860    0.0000 O   0  0
   11.0870   -2.7110    0.0000 O   0  0
    3.7320    3.6760    0.0000 O   0  0
    2.0000    2.6760    0.0000 O   0  0
    8.9280    0.6760    0.0000 N   0  0
   10.6420   -1.0370    0.0000 N   0  0
    3.7320    0.6760    0.0000 N   0  0
   12.0530   -2.4540    0.0000 N   0  0
    4.5980    2.1760    0.0000 N   0  0
    2.8660    1.1760    0.0000 N   0  0
   14.0570   -1.8620    0.0000 N   0  0
   15.8290   -1.6800    0.0000 N   0  0
    8.9280   -0.3240    0.0000 C   0  0  1  0  0  0
    9.9360   -0.3280    0.0000 C   0  0  1  0  0  0
    9.9360    0.6800    0.0000 C   0  0
    8.0620    1.1760    0.0000 C   0  0
    7.1960    0.6760    0.0000 C   0  0
    7.1960   -0.3240    0.0000 C   0  0
    6.3300    1.1760    0.0000 C   0  0
    8.0620    2.1760    0.0000 C   0  0
   11.6090   -0.7800    0.0000 C   0  0
   12.3140   -1.4880    0.0000 C   0  0
    4.5980    1.1760    0.0000 C   0  0
   13.2810   -1.2320    0.0000 C   0  0
   13.6410   -0.2990    0.0000 C   0  0
    3.7320   -0.3240    0.0000 C   0  0
    3.7320    2.6760    0.0000 C   0  0
    2.8660    2.1760    0.0000 C   0  0
   14.8960   -1.3200    0.0000 C   0  0
   10.8260   -3.6760    0.0000 C   0  0
    9.1460   -1.1460    0.0000 H   0  0
    9.6980   -0.9000    0.0000 H   0  0
    6.5860   -0.2160    0.0000 H   0  0
    6.9840   -0.9070    0.0000 H   0  0
   10.4800   -1.6350    0.0000 H   0  0
    6.7290    1.6510    0.0000 H   0  0
    5.9320    1.6510    0.0000 H   0  0
    7.1960    3.2960    0.0000 H   0  0
   13.3040    0.2220    0.0000 H   0  0
    2.3290    0.8660    0.0000 H   0  0
    3.1120   -0.3240    0.0000 H   0  0
    3.7320   -0.9440    0.0000 H   0  0
    4.3520   -0.3240    0.0000 H   0  0
   10.2280   -3.5140    0.0000 H   0  0
   10.6640   -4.2750    0.0000 H   0  0
   11.4250   -3.8380    0.0000 H   0  0
   16.3120   -1.2910    0.0000 H   0  0
   15.9250   -2.2920    0.0000 H   0  0
  1 19  1  0
  1 24  1  0
  2 25  1  0
  2 29  1  0
  3 31  1  0
  3 35  1  0
  4 21  2  0
  5 26  1  0
  5 44  1  0
  6 26  2  0
  7 27  2  0
  8 14  1  0
  8 36  1  0
  9 33  2  0
 10 34  2  0
 11 19  1  0
 11 21  1  0
 11 22  1  0
 20 12  1  1
 12 27  1  0
 12 41  1  0
 13 16  1  0
 13 29  1  0
 13 32  1  0
 14 28  2  0
 15 29  2  0
 15 33  1  0
 16 34  1  0
 16 46  1  0
 17 30  1  0
 17 35  2  0
 18 35  1  0
 18 53  1  0
 18 54  1  0
 19 20  1  0
 19 37  1  6
 20 21  1  0
 20 38  1  6
 22 23  2  0
 22 26  1  0
 23 24  1  0
 23 25  1  0
 24 39  1  0
 24 40  1  0
 25 42  1  0
 25 43  1  0
 27 28  1  0
 28 30  1  0
 30 31  2  0
 31 45  1  0
 32 47  1  0
 32 48  1  0
 32 49  1  0
 33 34  1  0
 36 50  1  0
 36 51  1  0
 36 52  1  0
M  END
> <Name>
5479530

> <PUBCHEM_COMPOUND_CID>
5479530

> <Toxicity>
0

> <Data Set>
TestSet

$$$$
5479529
  SciTegic12242523262D

 45 47  0  0  1  0            999 V2000
    6.8670   -0.6340    0.0000 S   0  0
    9.4470    1.5790    0.0000 O   0  0
    4.2690    0.8660    0.0000 O   0  0
    6.0010    2.8660    0.0000 O   0  0
    7.7330    2.8660    0.0000 O   0  0
   10.6740    0.3760    0.0000 O   0  0
   12.8610   -1.6720    0.0000 O   0  0
    9.8920   -2.5210    0.0000 O   0  0
    3.4030    2.3660    0.0000 O   0  0
    7.7330    0.8660    0.0000 N   0  0
    9.4470   -0.8470    0.0000 N   0  0
   10.8580   -2.2640    0.0000 N   0  0
    2.5370    0.8660    0.0000 N   0  0
    7.7330   -0.1340    0.0000 C   0  0  1  0  0  0
    8.7410   -0.1380    0.0000 C   0  0  1  0  0  0
    8.7410    0.8700    0.0000 C   0  0
    6.8670    1.3660    0.0000 C   0  0
    6.0010    0.8660    0.0000 C   0  0
    6.0010   -0.1340    0.0000 C   0  0
    5.1350    1.3660    0.0000 C   0  0
    6.8670    2.3660    0.0000 C   0  0
   10.4140   -0.5900    0.0000 C   0  0
   11.1190   -1.2980    0.0000 C   0  0
   12.0860   -1.0420    0.0000 C   0  0
    3.4030    1.3660    0.0000 C   0  0
   12.4460   -0.1090    0.0000 C   0  0
   13.4440   -0.1630    0.0000 C   0  0
   13.7010   -1.1300    0.0000 C   0  0
    9.6310   -3.4860    0.0000 C   0  0
    7.9510   -0.9560    0.0000 H   0  0
    8.5020   -0.7100    0.0000 H   0  0
    5.3900   -0.0260    0.0000 H   0  0
    5.7890   -0.7170    0.0000 H   0  0
    9.2850   -1.4450    0.0000 H   0  0
    5.5340    1.8410    0.0000 H   0  0
    4.7360    1.8410    0.0000 H   0  0
    6.0010    3.4860    0.0000 H   0  0
   12.1090    0.4120    0.0000 H   0  0
   13.8360    0.3180    0.0000 H   0  0
   14.2800   -1.3530    0.0000 H   0  0
    2.0000    1.1760    0.0000 H   0  0
    2.5370    0.2460    0.0000 H   0  0
    9.0320   -3.3240    0.0000 H   0  0
    9.4690   -4.0850    0.0000 H   0  0
   10.2300   -3.6480    0.0000 H   0  0
  1 14  1  0
  1 19  1  0
  2 16  2  0
  3 20  1  0
  3 25  1  0
  4 21  1  0
  4 37  1  0
  5 21  2  0
  6 22  2  0
  7 24  1  0
  7 28  1  0
  8 12  1  0
  8 29  1  0
  9 25  2  0
 10 14  1  0
 10 16  1  0
 10 17  1  0
 15 11  1  1
 11 22  1  0
 11 34  1  0
 12 23  2  0
 13 25  1  0
 13 41  1  0
 13 42  1  0
 14 15  1  0
 14 30  1  6
 15 16  1  0
 15 31  1  6
 17 18  2  0
 17 21  1  0
 18 19  1  0
 18 20  1  0
 19 32  1  0
 19 33  1  0
 20 35  1  0
 20 36  1  0
 22 23  1  0
 23 24  1  0
 24 26  2  0
 26 27  1  0
 26 38  1  0
 27 28  2  0
 27 39  1  0
 28 40  1  0
 29 43  1  0
 29 44  1  0
 29 45  1  0
M  END
> <Name>
5479529

> <PUBCHEM_COMPOUND_CID>
5479529

> <Toxicity>
0

> <Data Set>
TestSet

$$$$
2662
  SciTegic12242523262D

 40 42  0  0  0  0            999 V2000
    3.8970   -2.9230    0.0000 S   0  0
    2.2210    4.2330    0.0000 F   0  0
    3.6180    4.0120    0.0000 F   0  0
    2.0000    2.8370    0.0000 F   0  0
    2.8970   -2.9230    0.0000 O   0  0
    4.8970   -2.9230    0.0000 O   0  0
    3.8970    1.0770    0.0000 N   0  0
    3.0880    1.6640    0.0000 N   0  0
    3.8970   -3.9230    0.0000 N   0  0
    4.7060    1.6640    0.0000 C   0  0
    3.8970    0.0770    0.0000 C   0  0
    5.6570    1.3550    0.0000 C   0  0
    4.3970    2.6150    0.0000 C   0  0
    3.3970    2.6150    0.0000 C   0  0
    3.0310   -0.4230    0.0000 C   0  0
    4.7630   -0.4230    0.0000 C   0  0
    3.8970   -1.9230    0.0000 C   0  0
    6.4000    2.0250    0.0000 C   0  0
    5.8650    0.3770    0.0000 C   0  0
    3.0310   -1.4230    0.0000 C   0  0
    4.7630   -1.4230    0.0000 C   0  0
    7.5590    0.7370    0.0000 C   0  0
    7.3510    1.7150    0.0000 C   0  0
    6.8160    0.0680    0.0000 C   0  0
    2.8090    3.4240    0.0000 C   0  0
    8.5100    0.4280    0.0000 C   0  0
    4.7610    3.1170    0.0000 H   0  0
    2.4940   -0.1130    0.0000 H   0  0
    5.3000   -0.1130    0.0000 H   0  0
    6.2710    2.6310    0.0000 H   0  0
    5.4040   -0.0380    0.0000 H   0  0
    2.4940   -1.7330    0.0000 H   0  0
    5.3000   -1.7330    0.0000 H   0  0
    7.8120    2.1300    0.0000 H   0  0
    6.9450   -0.5380    0.0000 H   0  0
    8.3180   -0.1610    0.0000 H   0  0
    9.1000    0.2370    0.0000 H   0  0
    8.7020    1.0180    0.0000 H   0  0
    3.3600   -4.2330    0.0000 H   0  0
    4.4340   -4.2330    0.0000 H   0  0
  1  5  2  0
  1  6  2  0
  1  9  1  0
  1 17  1  0
  2 25  1  0
  3 25  1  0
  4 25  1  0
  7  8  1  0
  7 10  1  0
  7 11  1  0
  8 14  2  0
  9 39  1  0
  9 40  1  0
 10 12  1  0
 10 13  2  0
 11 15  2  0
 11 16  1  0
 12 18  2  0
 12 19  1  0
 13 14  1  0
 13 27  1  0
 14 25  1  0
 15 20  1  0
 15 28  1  0
 16 21  2  0
 16 29  1  0
 17 20  2  0
 17 21  1  0
 18 23  1  0
 18 30  1  0
 19 24  2  0
 19 31  1  0
 20 32  1  0
 21 33  1  0
 22 23  2  0
 22 24  1  0
 22 26  1  0
 23 34  1  0
 24 35  1  0
 26 36  1  0
 26 37  1  0
 26 38  1  0
M  END
> <Name>
2662

> <PUBCHEM_COMPOUND_CID>
2662

> <Toxicity>
0

> <Data Set>
TrainingSet

$$$$
27447
  SciTegic12242523262D

 41 43  0  0  1  0            999 V2000
    3.7320   -1.0250    0.0000 S   0  0
    6.3120    1.1870    0.0000 O   0  0
    7.5390   -0.0160    0.0000 O   0  0
    2.8660    2.4750    0.0000 O   0  0
    4.5980    2.4750    0.0000 O   0  0
    4.5980    0.4750    0.0000 N   0  0
    6.3120   -1.2380    0.0000 N   0  0
    7.7230   -2.6550    0.0000 N   0  0
    4.5980   -0.5250    0.0000 C   0  0  1  0  0  0
    5.6060   -0.5300    0.0000 C   0  0  1  0  0  0
    5.6060    0.4790    0.0000 C   0  0
    3.7320    0.9750    0.0000 C   0  0
    2.8660   -0.5250    0.0000 C   0  0
    2.8660    0.4750    0.0000 C   0  0
    7.2780   -0.9810    0.0000 C   0  0
    2.0000    0.9750    0.0000 C   0  0
    3.7320    1.9750    0.0000 C   0  0
    7.9840   -1.6900    0.0000 C   0  0  1  0  0  0
    8.9510   -1.4330    0.0000 C   0  0
    9.6560   -2.1420    0.0000 C   0  0
    9.2110   -0.4680    0.0000 C   0  0
   10.6230   -1.8850    0.0000 C   0  0
   10.1780   -0.2110    0.0000 C   0  0
   10.8840   -0.9190    0.0000 C   0  0
    4.8160   -1.3470    0.0000 H   0  0
    5.3670   -1.1020    0.0000 H   0  0
    6.1500   -1.8370    0.0000 H   0  0
    2.2550   -0.4180    0.0000 H   0  0
    2.6540   -1.1080    0.0000 H   0  0
    2.3100    1.5120    0.0000 H   0  0
    1.4630    1.2850    0.0000 H   0  0
    1.6900    0.4380    0.0000 H   0  0
    7.3850   -1.8490    0.0000 H   0  0
    8.1610   -3.0950    0.0000 H   0  0
    7.1240   -2.8140    0.0000 H   0  0
    2.8660    3.0950    0.0000 H   0  0
    9.4940   -2.7400    0.0000 H   0  0
    8.7740   -0.0280    0.0000 H   0  0
   11.0600   -2.3240    0.0000 H   0  0
   10.3400    0.3880    0.0000 H   0  0
   11.4830   -0.7600    0.0000 H   0  0
  1  9  1  0
  1 13  1  0
  2 11  2  0
  3 15  2  0
  4 17  1  0
  4 36  1  0
  5 17  2  0
  6  9  1  0
  6 11  1  0
  6 12  1  0
 10  7  1  1
  7 15  1  0
  7 27  1  0
  8 18  1  0
  8 34  1  0
  8 35  1  0
  9 10  1  0
  9 25  1  6
 10 11  1  0
 10 26  1  6
 12 14  2  0
 12 17  1  0
 13 14  1  0
 13 28  1  0
 13 29  1  0
 14 16  1  0
 18 15  1  1
 16 30  1  0
 16 31  1  0
 16 32  1  0
 18 19  1  0
 18 33  1  6
 19 20  2  0
 19 21  1  0
 20 22  1  0
 20 37  1  0
 21 23  2  0
 21 38  1  0
 22 24  2  0
 22 39  1  0
 23 24  1  0
 23 40  1  0
 24 41  1  0
M  END
> <Name>
27447

> <PUBCHEM_COMPOUND_CID>
27447

> <Toxicity>
0

> <Data Set>
TestSet

$$$$
2678
  SciTegic12242523262D

 52 54  0  0  1  0            999 V2000
    2.0000   -5.0600    0.0000 Cl  0  0
    6.3300    2.4400    0.0000 O   0  0
    8.0620    4.4400    0.0000 O   0  0
    6.3300    4.4400    0.0000 O   0  0
    5.4640   -2.0600    0.0000 N   0  0
    5.4640   -0.0600    0.0000 N   0  0
    4.5980   -1.5600    0.0000 C   0  0
    6.3300   -1.5600    0.0000 C   0  0
    4.5980   -0.5600    0.0000 C   0  0
    6.3300   -0.5600    0.0000 C   0  0
    5.4640   -3.0600    0.0000 C   0  0
    5.4640    0.9400    0.0000 C   0  0
    4.5980   -3.5600    0.0000 C   0  0
    6.3300   -3.5600    0.0000 C   0  0
    6.3300    1.4400    0.0000 C   0  0
    4.5980   -4.5600    0.0000 C   0  0
    3.7320   -3.0600    0.0000 C   0  0
    6.3300   -4.5600    0.0000 C   0  0
    7.1960   -3.0600    0.0000 C   0  0
    3.7320   -5.0600    0.0000 C   0  0
    2.8660   -3.5600    0.0000 C   0  0
    7.1960   -5.0600    0.0000 C   0  0
    8.0620   -3.5600    0.0000 C   0  0
    2.8660   -4.5600    0.0000 C   0  0
    8.0620   -4.5600    0.0000 C   0  0
    7.1960    2.9400    0.0000 C   0  0
    7.1960    3.9400    0.0000 C   0  0
    3.9880   -1.4520    0.0000 H   0  0
    4.3860   -2.1430    0.0000 H   0  0
    6.5420   -2.1430    0.0000 H   0  0
    6.9410   -1.4520    0.0000 H   0  0
    4.3860    0.0230    0.0000 H   0  0
    3.9880   -0.6680    0.0000 H   0  0
    6.9410   -0.6680    0.0000 H   0  0
    6.5420    0.0230    0.0000 H   0  0
    5.4640   -3.6800    0.0000 H   0  0
    5.2520    1.5230    0.0000 H   0  0
    4.8540    0.8320    0.0000 H   0  0
    6.5420    0.8570    0.0000 H   0  0
    6.9410    1.5480    0.0000 H   0  0
    5.1350   -4.8700    0.0000 H   0  0
    3.7320   -2.4400    0.0000 H   0  0
    5.7930   -4.8700    0.0000 H   0  0
    7.1960   -2.4400    0.0000 H   0  0
    3.7320   -5.6800    0.0000 H   0  0
    2.3290   -3.2500    0.0000 H   0  0
    7.1960   -5.6800    0.0000 H   0  0
    8.5990   -3.2500    0.0000 H   0  0
    8.5990   -4.8700    0.0000 H   0  0
    7.4080    2.3570    0.0000 H   0  0
    7.8070    3.0480    0.0000 H   0  0
    8.0620    5.0600    0.0000 H   0  0
  1 24  1  0
  2 15  1  0
  2 26  1  0
  3 27  1  0
  3 52  1  0
  4 27  2  0
  5  7  1  0
  5  8  1  0
  5 11  1  0
  6  9  1  0
  6 10  1  0
  6 12  1  0
  7  9  1  0
  7 28  1  0
  7 29  1  0
  8 10  1  0
  8 30  1  0
  8 31  1  0
  9 32  1  0
  9 33  1  0
 10 34  1  0
 10 35  1  0
 11 13  1  0
 11 14  1  0
 11 36  1  0
 12 15  1  0
 12 37  1  0
 12 38  1  0
 13 16  2  0
 13 17  1  0
 14 18  2  0
 14 19  1  0
 15 39  1  0
 15 40  1  0
 16 20  1  0
 16 41  1  0
 17 21  2  0
 17 42  1  0
 18 22  1  0
 18 43  1  0
 19 23  2  0
 19 44  1  0
 20 24  2  0
 20 45  1  0
 21 24  1  0
 21 46  1  0
 22 25  2  0
 22 47  1  0
 23 25  1  0
 23 48  1  0
 25 49  1  0
 26 27  1  0
 26 50  1  0
 26 51  1  0
M  END
> <Name>
2678

> <PUBCHEM_COMPOUND_CID>
2678

> <Toxicity>
0

> <Data Set>
TrainingSet

$$$$
2708
  SciTegic12242523262D

 38 38  0  0  0  0            999 V2000
    6.3300    4.6550    0.0000 Cl  0  0
    2.8660    4.6550    0.0000 Cl  0  0
    2.8660   -4.3450    0.0000 O   0  0
    2.0000   -2.8450    0.0000 O   0  0
    4.5980    2.6550    0.0000 N   0  0
    4.5980    1.6550    0.0000 C   0  0
    4.5980   -1.3450    0.0000 C   0  0
    4.5980   -0.3450    0.0000 C   0  0
    3.7320   -1.8450    0.0000 C   0  0
    5.4640    3.1550    0.0000 C   0  0
    3.7320    3.1550    0.0000 C   0  0
    3.7320    1.1550    0.0000 C   0  0
    5.4640    1.1550    0.0000 C   0  0
    3.7320    0.1550    0.0000 C   0  0
    5.4640    0.1550    0.0000 C   0  0
    3.7320   -2.8450    0.0000 C   0  0
    5.4640    4.1550    0.0000 C   0  0
    3.7320    4.1550    0.0000 C   0  0
    2.8660   -3.3450    0.0000 C   0  0
    4.8100   -1.9280    0.0000 H   0  0
    5.2090   -1.2370    0.0000 H   0  0
    3.5200   -1.2620    0.0000 H   0  0
    3.1220   -1.9530    0.0000 H   0  0
    5.6760    2.5720    0.0000 H   0  0
    6.0750    3.2630    0.0000 H   0  0
    3.1220    3.2630    0.0000 H   0  0
    3.5200    2.5720    0.0000 H   0  0
    3.1950    1.4650    0.0000 H   0  0
    6.0010    1.4650    0.0000 H   0  0
    3.1950   -0.1550    0.0000 H   0  0
    6.0010   -0.1550    0.0000 H   0  0
    3.9440   -3.4280    0.0000 H   0  0
    4.3430   -2.7370    0.0000 H   0  0
    5.2520    4.7380    0.0000 H   0  0
    4.8540    4.0470    0.0000 H   0  0
    4.3430    4.0470    0.0000 H   0  0
    3.9440    4.7380    0.0000 H   0  0
    2.3290   -4.6550    0.0000 H   0  0
  1 17  1  0
  2 18  1  0
  3 19  1  0
  3 38  1  0
  4 19  2  0
  5  6  1  0
  5 10  1  0
  5 11  1  0
  6 12  2  0
  6 13  1  0
  7  8  1  0
  7  9  1  0
  7 20  1  0
  7 21  1  0
  8 14  2  0
  8 15  1  0
  9 16  1  0
  9 22  1  0
  9 23  1  0
 10 17  1  0
 10 24  1  0
 10 25  1  0
 11 18  1  0
 11 26  1  0
 11 27  1  0
 12 14  1  0
 12 28  1  0
 13 15  2  0
 13 29  1  0
 14 30  1  0
 15 31  1  0
 16 19  1  0
 16 32  1  0
 16 33  1  0
 17 34  1  0
 17 35  1  0
 18 36  1  0
 18 37  1  0
M  END
> <Name>
2708

> <PUBCHEM_COMPOUND_CID>
2708

> <Toxicity>
1

> <Data Set>
TrainingSet

$$$$
5959
  SciTegic12242523262D

 32 32  0  0  1  0            999 V2000
    4.2690    4.0000    0.0000 Cl  0  0
    6.0010    4.0000    0.0000 Cl  0  0
    2.5370    1.0000    0.0000 O   0  0
    6.0010    1.0000    0.0000 O   0  0
    6.0010    2.0000    0.0000 O   0  0
    2.5370   -4.0000    0.0000 O   0  5
    4.2690   -4.0000    0.0000 O   0  0
    4.2690    2.0000    0.0000 N   0  0
    3.4030   -3.5000    0.0000 N   0  3
    4.2690    1.0000    0.0000 C   0  0  1  0  0  0
    3.4030    0.5000    0.0000 C   0  0  1  0  0  0
    3.4030   -0.5000    0.0000 C   0  0
    5.1350    0.5000    0.0000 C   0  0
    4.2690   -1.0000    0.0000 C   0  0
    2.5370   -1.0000    0.0000 C   0  0
    5.1350    2.5000    0.0000 C   0  0
    4.2690   -2.0000    0.0000 C   0  0
    2.5370   -2.0000    0.0000 C   0  0
    3.4030   -2.5000    0.0000 C   0  0
    5.1350    3.5000    0.0000 C   0  0
    4.8060    1.3100    0.0000 H   0  0
    3.4030    1.1200    0.0000 H   0  0
    4.7360    0.0250    0.0000 H   0  0
    5.5340    0.0250    0.0000 H   0  0
    3.7320    2.3100    0.0000 H   0  0
    4.8060   -0.6900    0.0000 H   0  0
    2.0000   -0.6900    0.0000 H   0  0
    2.0000    0.6900    0.0000 H   0  0
    4.8060   -2.3100    0.0000 H   0  0
    2.0000   -2.3100    0.0000 H   0  0
    6.5380    0.6900    0.0000 H   0  0
    5.1350    4.1200    0.0000 H   0  0
  1 20  1  0
  2 20  1  0
 11  3  1  1
  3 28  1  0
  4 13  1  0
  4 31  1  0
  5 16  2  0
  6  9  1  0
  7  9  2  0
  8 10  1  0
  8 16  1  0
  8 25  1  0
  9 19  1  0
 10 11  1  0
 10 13  1  6
 10 21  1  1
 11 12  1  0
 11 22  1  6
 12 14  1  0
 12 15  2  0
 13 23  1  0
 13 24  1  0
 14 17  2  0
 14 26  1  0
 15 18  1  0
 15 27  1  0
 16 20  1  0
 17 19  1  0
 17 29  1  0
 18 19  2  0
 18 30  1  0
 20 32  1  0
M  CHG  2   6  -1   9   1
M  END
> <Name>
5959

> <PUBCHEM_COMPOUND_CID>
5959

> <Toxicity>
1

> <Data Set>
TrainingSet

$$$$
9552079
  SciTegic12242523262D

 64 65  0  0  0  0            999 V2000
    2.8660   -3.6550    0.0000 Cl  0  0
   18.4540    0.3450    0.0000 Cl  0  0
    5.4640    1.8450    0.0000 N   0  0
   11.5260    2.3450    0.0000 N   0  0
    3.7320    1.8450    0.0000 N   0  0
   13.2580    2.3450    0.0000 N   0  0
    4.5980    3.3450    0.0000 N   0  0
   12.3920    0.8450    0.0000 N   0  0
    2.8660    0.3450    0.0000 N   0  0
   14.9900    2.3450    0.0000 N   0  0
    4.5980    0.3450    0.0000 N   0  0
   14.1240    0.8450    0.0000 N   0  0
    8.0620    2.3450    0.0000 C   0  0
    8.9280    1.8450    0.0000 C   0  0
    7.1960    1.8450    0.0000 C   0  0
    9.7940    2.3450    0.0000 C   0  0
    6.3300    2.3450    0.0000 C   0  0
   10.6600    1.8450    0.0000 C   0  0
    4.5980    2.3450    0.0000 C   0  0
   12.3920    1.8450    0.0000 C   0  0
    3.7320    0.8450    0.0000 C   0  0
   14.1240    1.8450    0.0000 C   0  0
    2.8660   -0.6550    0.0000 C   0  0
   15.8560    1.8450    0.0000 C   0  0
    2.0000   -1.1550    0.0000 C   0  0
   15.8560    0.8450    0.0000 C   0  0
    3.7320   -1.1550    0.0000 C   0  0
   16.7220    2.3450    0.0000 C   0  0
    2.0000   -2.1550    0.0000 C   0  0
   16.7220    0.3450    0.0000 C   0  0
    3.7320   -2.1550    0.0000 C   0  0
   17.5880    1.8450    0.0000 C   0  0
    2.8660   -2.6550    0.0000 C   0  0
   17.5880    0.8450    0.0000 C   0  0
    8.4610    2.8200    0.0000 H   0  0
    7.6640    2.8200    0.0000 H   0  0
    8.5300    1.3700    0.0000 H   0  0
    9.3270    1.3700    0.0000 H   0  0
    6.7980    1.3700    0.0000 H   0  0
    7.5950    1.3700    0.0000 H   0  0
   10.1930    2.8200    0.0000 H   0  0
    9.3960    2.8200    0.0000 H   0  0
    6.7290    2.8200    0.0000 H   0  0
    5.9320    2.8200    0.0000 H   0  0
   10.2620    1.3700    0.0000 H   0  0
   11.0590    1.3700    0.0000 H   0  0
    5.1350    3.6550    0.0000 H   0  0
    4.0610    3.6550    0.0000 H   0  0
   11.8550    0.5350    0.0000 H   0  0
   12.9290    0.5350    0.0000 H   0  0
    2.3290    0.6550    0.0000 H   0  0
   14.9900    2.9650    0.0000 H   0  0
    1.4630   -0.8450    0.0000 H   0  0
   15.3200    0.5350    0.0000 H   0  0
    4.2690   -0.8450    0.0000 H   0  0
   16.7220    2.9650    0.0000 H   0  0
    1.4630   -2.4650    0.0000 H   0  0
   16.7220   -0.2750    0.0000 H   0  0
    4.2690   -2.4650    0.0000 H   0  0
   18.1250    2.1550    0.0000 H   0  0
    5.1350    0.6550    0.0000 H   0  0
    4.5980   -0.2750    0.0000 H   0  0
   14.6610    0.5350    0.0000 H   0  0
   13.5870    0.5350    0.0000 H   0  0
  1 33  1  0
  2 34  1  0
  3 17  1  0
  3 19  2  0
  4 18  1  0
  4 20  2  0
  5 19  1  0
  5 21  2  0
  6 20  1  0
  6 22  2  0
  7 19  1  0
  7 47  1  0
  7 48  1  0
  8 20  1  0
  8 49  1  0
  8 50  1  0
  9 21  1  0
  9 23  1  0
  9 51  1  0
 10 22  1  0
 10 24  1  0
 10 52  1  0
 11 21  1  0
 11 61  1  0
 11 62  1  0
 12 22  1  0
 12 63  1  0
 12 64  1  0
 13 14  1  0
 13 15  1  0
 13 35  1  0
 13 36  1  0
 14 16  1  0
 14 37  1  0
 14 38  1  0
 15 17  1  0
 15 39  1  0
 15 40  1  0
 16 18  1  0
 16 41  1  0
 16 42  1  0
 17 43  1  0
 17 44  1  0
 18 45  1  0
 18 46  1  0
 23 25  1  0
 23 27  2  0
 24 26  1  0
 24 28  2  0
 25 29  2  0
 25 53  1  0
 26 30  2  0
 26 54  1  0
 27 31  1  0
 27 55  1  0
 28 32  1  0
 28 56  1  0
 29 33  1  0
 29 57  1  0
 30 34  1  0
 30 58  1  0
 31 33  2  0
 31 59  1  0
 32 34  2  0
 32 60  1  0
M  END
> <Name>
9552079

> <PUBCHEM_COMPOUND_CID>
9552079

> <Toxicity>
1

> <Data Set>
TrainingSet

$$$$
2719
  SciTegic12242523262D

 48 49  0  0  1  0            999 V2000
    2.0000   -4.0070    0.0000 Cl  0  0
    8.1280    2.5170    0.0000 N   0  0
    5.5300   -0.9830    0.0000 N   0  0
    5.5300   -3.9830    0.0000 N   0  0
    6.3960    0.5170    0.0000 C   0  0
    7.2620    1.0170    0.0000 C   0  0
    6.3960   -0.4830    0.0000 C   0  0
    7.2620    2.0170    0.0000 C   0  0
    7.2620   -0.9830    0.0000 C   0  0
    8.1280    3.5170    0.0000 C   0  0
    8.9940    2.0170    0.0000 C   0  0
    5.5300   -1.9830    0.0000 C   0  0
    4.6640   -2.4830    0.0000 C   0  0
    8.9940    4.0170    0.0000 C   0  0
    9.8600    2.5170    0.0000 C   0  0
    6.3960   -2.4830    0.0000 C   0  0
    4.6640   -3.4830    0.0000 C   0  0
    3.7700   -1.9480    0.0000 C   0  0
    6.3960   -3.4830    0.0000 C   0  0
    3.7700   -4.0170    0.0000 C   0  0
    2.8640   -2.4620    0.0000 C   0  0
    2.8640   -3.5040    0.0000 C   0  0
    6.1840    1.1000    0.0000 H   0  0
    5.7860    0.4100    0.0000 H   0  0
    7.4740    0.4350    0.0000 H   0  0
    7.8730    1.1250    0.0000 H   0  0
    5.8590   -0.1730    0.0000 H   0  0
    7.0500    2.6000    0.0000 H   0  0
    6.6520    1.9100    0.0000 H   0  0
    4.9930   -0.6730    0.0000 H   0  0
    6.9520   -1.5200    0.0000 H   0  0
    7.7990   -1.2930    0.0000 H   0  0
    7.5720   -0.4460    0.0000 H   0  0
    7.9160    4.1000    0.0000 H   0  0
    7.5180    3.4100    0.0000 H   0  0
    8.5960    1.5420    0.0000 H   0  0
    9.3930    1.5420    0.0000 H   0  0
    9.3040    3.4800    0.0000 H   0  0
    9.5310    4.3270    0.0000 H   0  0
    8.6840    4.5540    0.0000 H   0  0
   10.1700    1.9800    0.0000 H   0  0
   10.3970    2.8270    0.0000 H   0  0
    9.5500    3.0540    0.0000 H   0  0
    6.9330   -2.1730    0.0000 H   0  0
    3.7770   -1.3280    0.0000 H   0  0
    6.9330   -3.7930    0.0000 H   0  0
    3.7770   -4.6370    0.0000 H   0  0
    2.3280   -2.1500    0.0000 H   0  0
  1 22  1  0
  2  8  1  0
  2 10  1  0
  2 11  1  0
  3  7  1  0
  3 12  1  0
  3 30  1  0
  4 17  2  0
  4 19  1  0
  5  6  1  0
  5  7  1  0
  5 23  1  0
  5 24  1  0
  6  8  1  0
  6 25  1  0
  6 26  1  0
  7  9  1  0
  7 27  1  0
  8 28  1  0
  8 29  1  0
  9 31  1  0
  9 32  1  0
  9 33  1  0
 10 14  1  0
 10 34  1  0
 10 35  1  0
 11 15  1  0
 11 36  1  0
 11 37  1  0
 12 13  2  0
 12 16  1  0
 13 17  1  0
 13 18  1  0
 14 38  1  0
 14 39  1  0
 14 40  1  0
 15 41  1  0
 15 42  1  0
 15 43  1  0
 16 19  2  0
 16 44  1  0
 17 20  1  0
 18 21  2  0
 18 45  1  0
 19 46  1  0
 20 22  2  0
 20 47  1  0
 21 22  1  0
 21 48  1  0
M  END
> <Name>
2719

> <PUBCHEM_COMPOUND_CID>
2719

> <Toxicity>
0

> <Data Set>
TrainingSet

$$$$
2732
  SciTegic12242523262D

 33 35  0  0  1  0            999 V2000
    7.9180    2.4530    0.0000 Cl  0  0
    8.1240    0.4630    0.0000 S   0  0
    4.3710    1.0590    0.0000 O   0  0
    4.9890   -2.4530    0.0000 O   0  0
    8.5320    1.3760    0.0000 O   0  0
    7.7160   -0.4500    0.0000 O   0  0
    5.2620   -0.6980    0.0000 N   0  0
    9.0370    0.0550    0.0000 N   0  0
    4.6780    0.1070    0.0000 C   0  0
    3.7320   -0.1980    0.0000 C   0  0
    5.4880    0.6940    0.0000 C   0  0
    3.7320   -1.1980    0.0000 C   0  0
    4.6780   -1.5020    0.0000 C   0  0
    6.4010    0.2850    0.0000 C   0  0
    2.8660    0.3020    0.0000 C   0  0
    5.3860    1.6880    0.0000 C   0  0
    7.2110    0.8720    0.0000 C   0  0
    2.8660   -1.6980    0.0000 C   0  0
    2.0000   -0.1980    0.0000 C   0  0
    6.1960    2.2750    0.0000 C   0  0
    7.1080    1.8660    0.0000 C   0  0
    2.0000   -1.1980    0.0000 C   0  0
    5.8820   -0.6980    0.0000 H   0  0
    6.4650   -0.3310    0.0000 H   0  0
    2.8660    0.9220    0.0000 H   0  0
    4.8200    1.9420    0.0000 H   0  0
    2.8660   -2.3180    0.0000 H   0  0
    3.7650    1.1890    0.0000 H   0  0
    6.1320    2.8910    0.0000 H   0  0
    1.4630    0.1120    0.0000 H   0  0
    1.4630   -1.5080    0.0000 H   0  0
    9.5390    0.4190    0.0000 H   0  0
    9.1010   -0.5620    0.0000 H   0  0
  1 21  1  0
  2  5  2  0
  2  6  2  0
  2  8  1  0
  2 17  1  0
  3  9  1  0
  3 28  1  0
  4 13  2  0
  7  9  1  0
  7 13  1  0
  7 23  1  0
  8 32  1  0
  8 33  1  0
  9 10  1  0
  9 11  1  0
 10 12  2  0
 10 15  1  0
 11 14  2  0
 11 16  1  0
 12 13  1  0
 12 18  1  0
 14 17  1  0
 14 24  1  0
 15 19  2  0
 15 25  1  0
 16 20  2  0
 16 26  1  0
 17 21  2  0
 18 22  2  0
 18 27  1  0
 19 22  1  0
 19 30  1  0
 20 21  1  0
 20 29  1  0
 22 31  1  0
M  END
> <Name>
2732

> <PUBCHEM_COMPOUND_CID>
2732

> <Toxicity>
1

> <Data Set>
TrainingSet

$$$$
2756
  SciTegic12242523262D

 33 33  0  0  0  0            999 V2000
    3.5660   -1.1000    0.0000 S   0  0
    4.2480   -4.3610    0.0000 N   0  0
    2.7980    1.4320    0.0000 N   0  0
    4.7480   -2.8220    0.0000 N   0  0
    2.6170    3.1540    0.0000 N   0  0
    4.1990    2.4500    0.0000 N   0  0
    3.4300    4.9810    0.0000 N   0  0
    3.7480   -2.8220    0.0000 C   0  0
    3.1600   -2.0140    0.0000 C   0  0
    2.9790   -0.2910    0.0000 C   0  0
    3.3850    0.6230    0.0000 C   0  0
    3.4380   -3.7740    0.0000 C   0  0
    2.4880   -4.0830    0.0000 C   0  0
    5.0570   -3.7740    0.0000 C   0  0
    3.2040    2.3450    0.0000 C   0  0
    4.6060    3.3630    0.0000 C   0  0
    3.0230    4.0680    0.0000 C   0  0
    2.6460   -1.6670    0.0000 H   0  0
    2.7290   -2.4600    0.0000 H   0  0
    2.4650    0.0560    0.0000 H   0  0
    2.5480   -0.7370    0.0000 H   0  0
    3.8990    0.2760    0.0000 H   0  0
    3.8160    1.0690    0.0000 H   0  0
    4.2480   -4.9810    0.0000 H   0  0
    2.1810    1.3670    0.0000 H   0  0
    2.2960   -3.4930    0.0000 H   0  0
    1.8980   -4.2740    0.0000 H   0  0
    2.6790   -4.6720    0.0000 H   0  0
    5.6460   -3.9650    0.0000 H   0  0
    2.0000    3.0890    0.0000 H   0  0
    5.1720    3.1110    0.0000 H   0  0
    4.8580    3.9300    0.0000 H   0  0
    4.0390    3.6160    0.0000 H   0  0
  1  9  1  0
  1 10  1  0
  2 12  1  0
  2 14  1  0
  2 24  1  0
  3 11  1  0
  3 15  1  0
  3 25  1  0
  4  8  1  0
  4 14  2  0
  5 15  1  0
  5 17  1  0
  5 30  1  0
  6 15  2  0
  6 16  1  0
  7 17  3  0
  8  9  1  0
  8 12  2  0
  9 18  1  0
  9 19  1  0
 10 11  1  0
 10 20  1  0
 10 21  1  0
 11 22  1  0
 11 23  1  0
 12 13  1  0
 13 26  1  0
 13 27  1  0
 13 28  1  0
 14 29  1  0
 16 31  1  0
 16 32  1  0
 16 33  1  0
M  END
> <Name>
2756

> <PUBCHEM_COMPOUND_CID>
2756

> <Toxicity>
0

> <Data Set>
TrainingSet

$$$$
6917698
  SciTegic12242523262D

 61 63  0  0  1  0            999 V2000
    6.3300   -6.0950    0.0000 Cl  0  0
    7.1960    7.4050    0.0000 F   0  0
    3.7320   -1.5950    0.0000 O   0  0
    7.1960    3.4050    0.0000 O   0  0
    3.7320   -2.5950    0.0000 O   0  0
    2.8660   -4.0950    0.0000 O   0  0
    5.4640    0.4050    0.0000 N   0  0
    5.4640   -2.5950    0.0000 N   0  0
    4.5980   -7.0950    0.0000 N   0  0
    5.4640   -1.5950    0.0000 C   0  0  1  0  0  0
    4.5980   -1.0950    0.0000 C   0  0  2  0  0  0
    6.3300   -1.0950    0.0000 C   0  0
    4.5980   -0.0950    0.0000 C   0  0
    6.3300   -0.0950    0.0000 C   0  0
    5.4640    1.4050    0.0000 C   0  0
    6.3300    1.9050    0.0000 C   0  0
    4.5980   -3.0950    0.0000 C   0  0
    6.3300    2.9050    0.0000 C   0  0
    2.8660   -1.0950    0.0000 C   0  0
    4.5980   -4.0950    0.0000 C   0  0
    3.7320   -4.5950    0.0000 C   0  0
    5.4640   -4.5950    0.0000 C   0  0
    7.1960    4.4050    0.0000 C   0  0
    3.7320   -5.5950    0.0000 C   0  0
    5.4640   -5.5950    0.0000 C   0  0
    4.5980   -6.0950    0.0000 C   0  0
    8.0620    4.9050    0.0000 C   0  0
    6.3300    4.9050    0.0000 C   0  0
    2.0000   -4.5950    0.0000 C   0  0
    8.0620    5.9050    0.0000 C   0  0
    6.3300    5.9050    0.0000 C   0  0
    7.1960    6.4050    0.0000 C   0  0
    6.0010   -1.9050    0.0000 H   0  0
    4.5980   -1.7150    0.0000 H   0  0
    6.5420   -1.6780    0.0000 H   0  0
    6.9410   -0.9870    0.0000 H   0  0
    4.3860    0.4880    0.0000 H   0  0
    3.9880   -0.2030    0.0000 H   0  0
    6.9410   -0.2030    0.0000 H   0  0
    6.5420    0.4880    0.0000 H   0  0
    5.2520    1.9880    0.0000 H   0  0
    4.8540    1.2970    0.0000 H   0  0
    6.0010   -2.9050    0.0000 H   0  0
    6.5420    1.3220    0.0000 H   0  0
    6.9410    2.0130    0.0000 H   0  0
    6.1180    3.4880    0.0000 H   0  0
    5.7200    2.7970    0.0000 H   0  0
    3.1760   -0.5580    0.0000 H   0  0
    2.3290   -0.7850    0.0000 H   0  0
    2.5560   -1.6320    0.0000 H   0  0
    6.0010   -4.2850    0.0000 H   0  0
    3.1950   -5.9050    0.0000 H   0  0
    8.5990    4.5950    0.0000 H   0  0
    5.7930    4.5950    0.0000 H   0  0
    4.0610   -7.4050    0.0000 H   0  0
    5.1350   -7.4050    0.0000 H   0  0
    1.6900   -4.0580    0.0000 H   0  0
    1.4630   -4.9050    0.0000 H   0  0
    2.3100   -5.1320    0.0000 H   0  0
    8.5990    6.2150    0.0000 H   0  0
    5.7930    6.2150    0.0000 H   0  0
  1 25  1  0
  2 32  1  0
 11  3  1  1
  3 19  1  0
  4 18  1  0
  4 23  1  0
  5 17  2  0
  6 21  1  0
  6 29  1  0
  7 13  1  0
  7 14  1  0
  7 15  1  0
 10  8  1  1
  8 17  1  0
  8 43  1  0
  9 26  1  0
  9 55  1  0
  9 56  1  0
 10 11  1  0
 10 12  1  0
 10 33  1  6
 11 13  1  0
 11 34  1  6
 12 14  1  0
 12 35  1  0
 12 36  1  0
 13 37  1  0
 13 38  1  0
 14 39  1  0
 14 40  1  0
 15 16  1  0
 15 41  1  0
 15 42  1  0
 16 18  1  0
 16 44  1  0
 16 45  1  0
 17 20  1  0
 18 46  1  0
 18 47  1  0
 19 48  1  0
 19 49  1  0
 19 50  1  0
 20 21  1  0
 20 22  2  0
 21 24  2  0
 22 25  1  0
 22 51  1  0
 23 27  1  0
 23 28  2  0
 24 26  1  0
 24 52  1  0
 25 26  2  0
 27 30  2  0
 27 53  1  0
 28 31  1  0
 28 54  1  0
 29 57  1  0
 29 58  1  0
 29 59  1  0
 30 32  1  0
 30 60  1  0
 31 32  2  0
 31 61  1  0
M  END
> <Name>
6917698

> <PUBCHEM_COMPOUND_CID>
6917698

> <Toxicity>
1

> <Data Set>
TrainingSet

$$$$
2771
  SciTegic12242523262D

 45 47  0  0  1  0            999 V2000
    9.6500    1.8610    0.0000 F   0  0
    6.9940   -1.2890    0.0000 O   0  0
    3.8400    1.8380    0.0000 N   0  0
    2.0000   -2.7890    0.0000 N   0  0
    6.4100   -0.4850    0.0000 C   0  0
    6.1030    0.4670    0.0000 C   0  0
    5.4640   -0.7890    0.0000 C   0  0
    5.4640   -1.7890    0.0000 C   0  0
    5.1250    0.6770    0.0000 C   0  0
    7.2200    0.1020    0.0000 C   0  0
    6.4100   -2.0940    0.0000 C   0  0
    4.8180    1.6280    0.0000 C   0  0
    4.5980   -0.2890    0.0000 C   0  0
    4.5980   -2.2890    0.0000 C   0  0
    8.1330   -0.3070    0.0000 C   0  0
    7.1180    1.0960    0.0000 C   0  0
    3.7320   -0.7890    0.0000 C   0  0
    3.7320   -1.7890    0.0000 C   0  0
    8.9430    0.2800    0.0000 C   0  0
    7.9280    1.6830    0.0000 C   0  0
    8.8400    1.2740    0.0000 C   0  0
    3.5330    2.7890    0.0000 C   0  0
    3.1700    1.0960    0.0000 C   0  0
    2.8660   -2.2890    0.0000 C   0  0
    6.7170    0.5520    0.0000 H   0  0
    6.1260    1.0870    0.0000 H   0  0
    4.5110    0.5910    0.0000 H   0  0
    5.1020    0.0570    0.0000 H   0  0
    6.1590   -2.6610    0.0000 H   0  0
    6.9480   -2.4030    0.0000 H   0  0
    5.4320    1.7130    0.0000 H   0  0
    4.8400    2.2480    0.0000 H   0  0
    4.5980    0.3310    0.0000 H   0  0
    4.5980   -2.9090    0.0000 H   0  0
    8.1970   -0.9230    0.0000 H   0  0
    6.5520    1.3500    0.0000 H   0  0
    3.1950   -0.4790    0.0000 H   0  0
    9.5090    0.0270    0.0000 H   0  0
    7.8640    2.3000    0.0000 H   0  0
    4.1230    2.9800    0.0000 H   0  0
    3.3420    3.3790    0.0000 H   0  0
    2.9430    2.5990    0.0000 H   0  0
    2.7100    1.5110    0.0000 H   0  0
    2.7540    0.6360    0.0000 H   0  0
    3.6300    0.6800    0.0000 H   0  0
  1 21  1  0
  2  5  1  0
  2 11  1  0
  3 12  1  0
  3 22  1  0
  3 23  1  0
  4 24  3  0
  5  6  1  0
  5  7  1  0
  5 10  1  0
  6  9  1  0
  6 25  1  0
  6 26  1  0
  7  8  2  0
  7 13  1  0
  8 11  1  0
  8 14  1  0
  9 12  1  0
  9 27  1  0
  9 28  1  0
 10 15  2  0
 10 16  1  0
 11 29  1  0
 11 30  1  0
 12 31  1  0
 12 32  1  0
 13 17  2  0
 13 33  1  0
 14 18  2  0
 14 34  1  0
 15 19  1  0
 15 35  1  0
 16 20  2  0
 16 36  1  0
 17 18  1  0
 17 37  1  0
 18 24  1  0
 19 21  2  0
 19 38  1  0
 20 21  1  0
 20 39  1  0
 22 40  1  0
 22 41  1  0
 22 42  1  0
 23 43  1  0
 23 44  1  0
 23 45  1  0
M  END
> <Name>
2771

> <PUBCHEM_COMPOUND_CID>
2771

> <Toxicity>
0

> <Data Set>
TrainingSet

$$$$
20279
  SciTegic12242523262D

 31 33  0  0  1  0            999 V2000
    2.0000   -0.6730    0.0000 Cl  0  0
    5.2690    0.8920    0.0000 O   0  0
    7.6180    1.9760    0.0000 O   0  0
    6.2210    3.3930    0.0000 O   0  0
    5.5440   -0.8690    0.0000 N   0  0
    5.5440   -2.4780    0.0000 N   0  0
    3.7320   -0.6730    0.0000 N   0  0
    2.8660   -2.1730    0.0000 N   0  0
    3.7320   -3.6730    0.0000 N   0  0
    5.8550    0.0820    0.0000 C   0  0  1  0  0  0
    6.8080    1.3890    0.0000 C   0  0  1  0  0  0
    6.8070    0.3890    0.0000 C   0  0
    5.8580    1.7000    0.0000 C   0  0  1  0  0  0
    5.5500    2.6520    0.0000 C   0  0
    4.5980   -1.1730    0.0000 C   0  0
    6.1280   -1.6730    0.0000 C   0  0
    4.5980   -2.1730    0.0000 C   0  0
    3.7320   -2.6730    0.0000 C   0  0
    2.8660   -1.1730    0.0000 C   0  0
    6.2930   -0.3570    0.0000 H   0  0
    7.3600    1.1070    0.0000 H   0  0
    6.9340   -0.2180    0.0000 H   0  0
    7.4230    0.4530    0.0000 H   0  0
    5.2460    1.7980    0.0000 H   0  0
    5.1700    3.1410    0.0000 H   0  0
    5.0020    2.3610    0.0000 H   0  0
    6.7480   -1.6730    0.0000 H   0  0
    8.1840    1.7220    0.0000 H   0  0
    6.0300    3.9830    0.0000 H   0  0
    3.1950   -3.9830    0.0000 H   0  0
    4.2690   -3.9830    0.0000 H   0  0
  1 19  1  0
  2 10  1  0
  2 13  1  0
 11  3  1  1
  3 28  1  0
  4 14  1  0
  4 29  1  0
 10  5  1  6
  5 15  1  0
  5 16  1  0
  6 16  2  0
  6 17  1  0
  7 15  1  0
  7 19  2  0
  8 18  2  0
  8 19  1  0
  9 18  1  0
  9 30  1  0
  9 31  1  0
 10 12  1  0
 10 20  1  1
 11 12  1  0
 11 13  1  0
 11 21  1  6
 12 22  1  0
 12 23  1  0
 13 14  1  6
 13 24  1  1
 14 25  1  0
 14 26  1  0
 15 17  2  0
 16 27  1  0
 17 18  1  0
M  END
> <Name>
20279

> <PUBCHEM_COMPOUND_CID>
20279

> <Toxicity>
1

> <Data Set>
TestSet

$$$$
26987
  SciTegic12242523262D

 50 52  0  0  1  0            999 V2000
    3.0000   -3.6570    0.0000 Cl  0  0
    4.0000    0.3430    0.0000 O   0  0
    6.9940    2.1790    0.0000 N   0  0
    6.0000    2.0750    0.0000 C   0  0  2  0  0  0
    5.5930    2.9880    0.0000 C   0  0
    6.3360    3.6570    0.0000 C   0  0
    7.2020    3.1570    0.0000 C   0  0
    5.5000    1.2090    0.0000 C   0  0
    4.5000    1.2090    0.0000 C   0  0
    7.6640    1.4360    0.0000 C   0  0
    3.0000    0.3430    0.0000 C   0  0  1  0  0  0
    3.0000   -0.6570    0.0000 C   0  0
    3.0000    1.3430    0.0000 C   0  0
    2.0000    0.3430    0.0000 C   0  0
    2.1340   -1.1570    0.0000 C   0  0
    3.8660   -1.1570    0.0000 C   0  0
    3.8660    1.8430    0.0000 C   0  0
    2.1340    1.8430    0.0000 C   0  0
    2.1340   -2.1570    0.0000 C   0  0
    3.8660   -2.1570    0.0000 C   0  0
    3.8660    2.8430    0.0000 C   0  0
    2.1340    2.8430    0.0000 C   0  0
    3.0000   -2.6570    0.0000 C   0  0
    3.0000    3.3430    0.0000 C   0  0
    6.3380    1.5550    0.0000 H   0  0
    5.2290    3.4900    0.0000 H   0  0
    5.0560    2.6780    0.0000 H   0  0
    6.7010    4.1590    0.0000 H   0  0
    5.8760    4.0720    0.0000 H   0  0
    7.7920    2.9660    0.0000 H   0  0
    7.4550    3.7240    0.0000 H   0  0
    5.3920    0.5980    0.0000 H   0  0
    6.0830    0.9970    0.0000 H   0  0
    4.6080    1.8190    0.0000 H   0  0
    3.9170    1.4210    0.0000 H   0  0
    7.2030    1.0210    0.0000 H   0  0
    8.0780    0.9750    0.0000 H   0  0
    8.1240    1.8510    0.0000 H   0  0
    2.0000    0.9630    0.0000 H   0  0
    1.3800    0.3430    0.0000 H   0  0
    2.0000   -0.2770    0.0000 H   0  0
    1.5970   -0.8470    0.0000 H   0  0
    4.4030   -0.8470    0.0000 H   0  0
    4.4030    1.5330    0.0000 H   0  0
    1.5970    1.5330    0.0000 H   0  0
    1.5970   -2.4670    0.0000 H   0  0
    4.4030   -2.4670    0.0000 H   0  0
    4.4030    3.1530    0.0000 H   0  0
    1.5970    3.1530    0.0000 H   0  0
    3.0000    3.9630    0.0000 H   0  0
  1 23  1  0
  2  9  1  0
 11  2  1  6
  3  4  1  0
  3  7  1  0
  3 10  1  0
  4  5  1  0
  4  8  1  1
  4 25  1  6
  5  6  1  0
  5 26  1  0
  5 27  1  0
  6  7  1  0
  6 28  1  0
  6 29  1  0
  7 30  1  0
  7 31  1  0
  8  9  1  0
  8 32  1  0
  8 33  1  0
  9 34  1  0
  9 35  1  0
 10 36  1  0
 10 37  1  0
 10 38  1  0
 11 12  1  1
 11 13  1  0
 11 14  1  0
 12 15  1  0
 12 16  2  0
 13 17  2  0
 13 18  1  0
 14 39  1  0
 14 40  1  0
 14 41  1  0
 15 19  2  0
 15 42  1  0
 16 20  1  0
 16 43  1  0
 17 21  1  0
 17 44  1  0
 18 22  2  0
 18 45  1  0
 19 23  1  0
 19 46  1  0
 20 23  2  0
 20 47  1  0
 21 24  2  0
 21 48  1  0
 22 24  1  0
 22 49  1  0
 24 50  1  0
M  END
> <Name>
26987

> <PUBCHEM_COMPOUND_CID>
26987

> <Toxicity>
1

> <Data Set>
TrainingSet

$$$$
446598
  SciTegic12242523262D

 60 61  0  0  1  0            999 V2000
    2.8940   -1.6300    0.0000 Cl  0  0
    8.0900   -1.6300    0.0000 S   0  0
    6.3580   -1.6300    0.0000 O   0  0
    4.6260   -3.6300    0.0000 O   0  0
    6.3580   -4.6300    0.0000 O   0  0
    8.0900   -3.6300    0.0000 O   0  0
    2.8940   -0.6300    0.0000 O   0  0
    2.9510    1.4580    0.0000 N   0  0
    4.6260   -0.6300    0.0000 N   0  0
    4.2600    2.4090    0.0000 C   0  0  2  0  0  0
    3.7600    0.8700    0.0000 C   0  0  1  0  0  0
    4.5690    1.4580    0.0000 C   0  0
    3.2600    2.4090    0.0000 C   0  0
    5.4920   -2.1300    0.0000 C   0  0  2  0  0  0
    4.6260   -1.6300    0.0000 C   0  0  1  0  0  0
    5.4920   -3.1300    0.0000 C   0  0  1  0  0  0
    4.8480    3.2180    0.0000 C   0  0
    6.3580   -3.6300    0.0000 C   0  0  1  0  0  0
    3.7600   -0.1300    0.0000 C   0  0
    7.2240   -3.1300    0.0000 C   0  0  2  0  0  0
    7.2240   -2.1300    0.0000 C   0  0  1  0  0  0
    3.7600   -2.1300    0.0000 C   0  0  2  0  0  0
    2.0000    1.1490    0.0000 C   0  0
    4.4410    4.1310    0.0000 C   0  0
    3.7600   -3.1300    0.0000 C   0  0
    5.0290    4.9400    0.0000 C   0  0
    8.0900   -0.6300    0.0000 C   0  0
    4.8720    2.3120    0.0000 H   0  0
    3.2080    0.5880    0.0000 H   0  0
    4.8790    0.9210    0.0000 H   0  0
    5.1360    1.7100    0.0000 H   0  0
    3.3250    3.0250    0.0000 H   0  0
    2.6540    2.5380    0.0000 H   0  0
    5.4920   -1.2800    0.0000 H   0  0
    4.0890   -1.3200    0.0000 H   0  0
    4.9550   -2.8200    0.0000 H   0  0
    5.2790    2.7720    0.0000 H   0  0
    5.3620    3.5640    0.0000 H   0  0
    6.8950   -3.9400    0.0000 H   0  0
    7.7610   -2.8200    0.0000 H   0  0
    5.1630   -0.3200    0.0000 H   0  0
    7.2240   -1.5100    0.0000 H   0  0
    3.2230   -2.4400    0.0000 H   0  0
    1.8080    1.7380    0.0000 H   0  0
    1.4100    0.9570    0.0000 H   0  0
    2.1920    0.5590    0.0000 H   0  0
    4.0100    4.5770    0.0000 H   0  0
    3.9270    3.7840    0.0000 H   0  0
    3.1400   -3.1300    0.0000 H   0  0
    3.7600   -3.7500    0.0000 H   0  0
    4.3800   -3.1300    0.0000 H   0  0
    4.6260   -4.2500    0.0000 H   0  0
    6.8950   -4.9400    0.0000 H   0  0
    5.5300    4.5760    0.0000 H   0  0
    5.3930    5.4420    0.0000 H   0  0
    4.5270    5.3050    0.0000 H   0  0
    8.6270   -3.3200    0.0000 H   0  0
    8.7100   -0.6300    0.0000 H   0  0
    8.0900   -0.0100    0.0000 H   0  0
    7.4700   -0.6300    0.0000 H   0  0
 22  1  1  6
 21  2  1  6
  2 27  1  0
  3 14  1  0
  3 21  1  0
 16  4  1  1
  4 52  1  0
 18  5  1  1
  5 53  1  0
 20  6  1  6
  6 57  1  0
  7 19  2  0
  8 11  1  0
  8 13  1  0
  8 23  1  0
 15  9  1  1
  9 19  1  0
  9 41  1  0
 10 12  1  0
 10 13  1  0
 10 17  1  6
 10 28  1  1
 11 12  1  0
 11 19  1  1
 11 29  1  6
 12 30  1  0
 12 31  1  0
 13 32  1  0
 13 33  1  0
 14 15  1  0
 14 16  1  0
 14 34  1  6
 15 22  1  0
 15 35  1  6
 16 18  1  0
 16 36  1  6
 17 24  1  0
 17 37  1  0
 17 38  1  0
 18 20  1  0
 18 39  1  6
 20 21  1  0
 20 40  1  1
 21 42  1  1
 22 25  1  0
 22 43  1  1
 23 44  1  0
 23 45  1  0
 23 46  1  0
 24 26  1  0
 24 47  1  0
 24 48  1  0
 25 49  1  0
 25 50  1  0
 25 51  1  0
 26 54  1  0
 26 55  1  0
 26 56  1  0
 27 58  1  0
 27 59  1  0
 27 60  1  0
M  END
> <Name>
446598

> <PUBCHEM_COMPOUND_CID>
446598

> <Toxicity>
0

> <Data Set>
TrainingSet

$$$$
1548953
  SciTegic12242523262D

 57 59  0  0  0  0            999 V2000
    4.5980    4.2500    0.0000 Cl  0  0
    5.4640   -1.2500    0.0000 O   0  0
    3.7320   -3.2500    0.0000 N   0  0
    4.5980   -2.7500    0.0000 C   0  0
    3.7320   -4.2500    0.0000 C   0  0
    2.8660   -2.7500    0.0000 C   0  0
    4.5980   -1.7500    0.0000 C   0  0
    2.8660   -4.7500    0.0000 C   0  0
    2.0000   -3.2500    0.0000 C   0  0
    5.4640    1.7500    0.0000 C   0  0
    5.4640   -0.2500    0.0000 C   0  0
    5.4640    2.7500    0.0000 C   0  0
    6.3300    1.2500    0.0000 C   0  0
    4.5980    1.2500    0.0000 C   0  0
    6.3300    0.2500    0.0000 C   0  0
    4.5980    0.2500    0.0000 C   0  0
    6.3300    3.2500    0.0000 C   0  0
    4.5980    3.2500    0.0000 C   0  0
    3.7320    2.7500    0.0000 C   0  0
    7.1960    2.7500    0.0000 C   0  0
    6.3300    4.2500    0.0000 C   0  0
    8.0620    3.2500    0.0000 C   0  0
    7.1960    4.7500    0.0000 C   0  0
    3.7320    1.7500    0.0000 C   0  0
    2.8660    3.2500    0.0000 C   0  0
    8.0620    4.2500    0.0000 C   0  0
    2.8660    1.2500    0.0000 C   0  0
    2.0000    2.7500    0.0000 C   0  0
    2.0000    1.7500    0.0000 C   0  0
    4.8100   -3.3330    0.0000 H   0  0
    5.2090   -2.6420    0.0000 H   0  0
    3.9440   -4.8330    0.0000 H   0  0
    4.3430   -4.1420    0.0000 H   0  0
    3.2650   -2.2750    0.0000 H   0  0
    2.4680   -2.2750    0.0000 H   0  0
    4.3860   -1.1670    0.0000 H   0  0
    3.9880   -1.8580    0.0000 H   0  0
    2.5560   -4.2130    0.0000 H   0  0
    2.3290   -5.0600    0.0000 H   0  0
    3.1760   -5.2870    0.0000 H   0  0
    1.6900   -2.7130    0.0000 H   0  0
    1.4630   -3.5600    0.0000 H   0  0
    2.3100   -3.7870    0.0000 H   0  0
    6.8670    1.5600    0.0000 H   0  0
    4.0610    1.5600    0.0000 H   0  0
    6.8670   -0.0600    0.0000 H   0  0
    4.0610   -0.0600    0.0000 H   0  0
    7.1960    2.1300    0.0000 H   0  0
    5.7930    4.5600    0.0000 H   0  0
    8.5990    2.9400    0.0000 H   0  0
    7.1960    5.3700    0.0000 H   0  0
    4.2690    1.4400    0.0000 H   0  0
    2.8660    3.8700    0.0000 H   0  0
    8.5990    4.5600    0.0000 H   0  0
    2.8660    0.6300    0.0000 H   0  0
    1.4630    3.0600    0.0000 H   0  0
    1.4630    1.4400    0.0000 H   0  0
  1 18  1  0
  2  7  1  0
  2 11  1  0
  3  4  1  0
  3  5  1  0
  3  6  1  0
  4  7  1  0
  4 30  1  0
  4 31  1  0
  5  8  1  0
  5 32  1  0
  5 33  1  0
  6  9  1  0
  6 34  1  0
  6 35  1  0
  7 36  1  0
  7 37  1  0
  8 38  1  0
  8 39  1  0
  8 40  1  0
  9 41  1  0
  9 42  1  0
  9 43  1  0
 10 12  1  0
 10 13  2  0
 10 14  1  0
 11 15  2  0
 11 16  1  0
 12 17  1  0
 12 18  2  0
 13 15  1  0
 13 44  1  0
 14 16  2  0
 14 45  1  0
 15 46  1  0
 16 47  1  0
 17 20  2  0
 17 21  1  0
 18 19  1  0
 19 24  2  0
 19 25  1  0
 20 22  1  0
 20 48  1  0
 21 23  2  0
 21 49  1  0
 22 26  2  0
 22 50  1  0
 23 26  1  0
 23 51  1  0
 24 27  1  0
 24 52  1  0
 25 28  2  0
 25 53  1  0
 26 54  1  0
 27 29  2  0
 27 55  1  0
 28 29  1  0
 28 56  1  0
 29 57  1  0
M  END
> <Name>
1548953

> <PUBCHEM_COMPOUND_CID>
1548953

> <Toxicity>
1

> <Data Set>
TrainingSet

$$$$
2801
  SciTegic12242523262D

 45 47  0  0  0  0            999 V2000
    2.0000    0.2350    0.0000 Cl  0  0
    5.3820    0.9050    0.0000 N   0  0
    7.1140   -2.0950    0.0000 N   0  0
    5.3820   -0.0950    0.0000 C   0  0
    4.4810    1.3390    0.0000 C   0  0
    6.2830    1.3390    0.0000 C   0  0
    4.8820    3.0950    0.0000 C   0  0
    5.8820    3.0950    0.0000 C   0  0
    4.2580    2.3140    0.0000 C   0  0
    6.5050    2.3140    0.0000 C   0  0
    6.2480   -0.5950    0.0000 C   0  0
    6.2480   -1.5950    0.0000 C   0  0
    3.7280    0.6180    0.0000 C   0  0
    7.0350    0.6180    0.0000 C   0  0
    3.2680    2.6360    0.0000 C   0  0
    7.4960    2.6360    0.0000 C   0  0
    2.7300    0.9180    0.0000 C   0  0
    8.0330    0.9180    0.0000 C   0  0
    2.4990    1.9330    0.0000 C   0  0
    8.2650    1.9330    0.0000 C   0  0
    7.1140   -3.0950    0.0000 C   0  0
    7.9800   -1.5950    0.0000 C   0  0
    4.7710    0.0120    0.0000 H   0  0
    5.1700   -0.6780    0.0000 H   0  0
    5.0200    3.7000    0.0000 H   0  0
    4.3230    3.3640    0.0000 H   0  0
    6.4400    3.3640    0.0000 H   0  0
    5.7440    3.7000    0.0000 H   0  0
    6.8580   -0.7030    0.0000 H   0  0
    6.4600   -0.0130    0.0000 H   0  0
    5.6370   -1.4880    0.0000 H   0  0
    6.0360   -2.1780    0.0000 H   0  0
    3.8730    0.0160    0.0000 H   0  0
    6.8900    0.0160    0.0000 H   0  0
    3.1370    3.2420    0.0000 H   0  0
    7.6270    3.2420    0.0000 H   0  0
    8.4860    0.4940    0.0000 H   0  0
    1.9070    2.1180    0.0000 H   0  0
    8.8560    2.1180    0.0000 H   0  0
    6.4940   -3.0950    0.0000 H   0  0
    7.1140   -3.7150    0.0000 H   0  0
    7.7340   -3.0950    0.0000 H   0  0
    8.2900   -2.1320    0.0000 H   0  0
    8.5170   -1.2850    0.0000 H   0  0
    7.6700   -1.0580    0.0000 H   0  0
  1 17  1  0
  2  4  1  0
  2  5  1  0
  2  6  1  0
  3 12  1  0
  3 21  1  0
  3 22  1  0
  4 11  1  0
  4 23  1  0
  4 24  1  0
  5  9  2  0
  5 13  1  0
  6 10  2  0
  6 14  1  0
  7  8  1  0
  7  9  1  0
  7 25  1  0
  7 26  1  0
  8 10  1  0
  8 27  1  0
  8 28  1  0
  9 15  1  0
 10 16  1  0
 11 12  1  0
 11 29  1  0
 11 30  1  0
 12 31  1  0
 12 32  1  0
 13 17  2  0
 13 33  1  0
 14 18  2  0
 14 34  1  0
 15 19  2  0
 15 35  1  0
 16 20  2  0
 16 36  1  0
 17 19  1  0
 18 20  1  0
 18 37  1  0
 19 38  1  0
 20 39  1  0
 21 40  1  0
 21 41  1  0
 21 42  1  0
 22 43  1  0
 22 44  1  0
 22 45  1  0
M  END
> <Name>
2801

> <PUBCHEM_COMPOUND_CID>
2801

> <Toxicity>
0

> <Data Set>
TrainingSet

$$$$
60606
  SciTegic12242523262D

 37 39  0  0  1  0            999 V2000
    2.8660    0.7500    0.0000 Cl  0  0
    8.1420   -2.0550    0.0000 S   0  0
    3.7320    1.2500    0.0000 O   0  0
    5.4640    1.2500    0.0000 O   0  0
    5.4640   -0.7500    0.0000 N   0  0
    5.4640   -1.7500    0.0000 C   0  0
    6.3300   -0.2500    0.0000 C   0  0
    4.5980   -0.2500    0.0000 C   0  0  1  0  0  0
    6.3300   -2.2500    0.0000 C   0  0
    7.1960   -0.7500    0.0000 C   0  0
    7.1960   -1.7500    0.0000 C   0  0
    3.7320   -0.7500    0.0000 C   0  0
    8.1420   -0.4450    0.0000 C   0  0
    4.5980    0.7500    0.0000 C   0  0
    8.7260   -1.2500    0.0000 C   0  0
    2.8660   -0.2500    0.0000 C   0  0
    3.7320   -1.7500    0.0000 C   0  0
    2.0000   -0.7500    0.0000 C   0  0
    2.8660   -2.2500    0.0000 C   0  0
    2.0000   -1.7500    0.0000 C   0  0
    3.7320    2.2500    0.0000 C   0  0
    4.8540   -1.6420    0.0000 H   0  0
    5.2520   -2.3330    0.0000 H   0  0
    6.7290    0.2250    0.0000 H   0  0
    5.9320    0.2250    0.0000 H   0  0
    5.1350    0.0600    0.0000 H   0  0
    5.9320   -2.7250    0.0000 H   0  0
    6.7290   -2.7250    0.0000 H   0  0
    8.3350    0.1440    0.0000 H   0  0
    9.3460   -1.2500    0.0000 H   0  0
    4.2690   -2.0600    0.0000 H   0  0
    1.4630   -0.4400    0.0000 H   0  0
    2.8660   -2.8700    0.0000 H   0  0
    1.4630   -2.0600    0.0000 H   0  0
    4.3520    2.2500    0.0000 H   0  0
    3.7320    2.8700    0.0000 H   0  0
    3.1120    2.2500    0.0000 H   0  0
  1 16  1  0
  2 11  1  0
  2 15  1  0
  3 14  1  0
  3 21  1  0
  4 14  2  0
  5  6  1  0
  5  7  1  0
  8  5  1  1
  6  9  1  0
  6 22  1  0
  6 23  1  0
  7 10  1  0
  7 24  1  0
  7 25  1  0
  8 12  1  0
  8 14  1  0
  8 26  1  6
  9 11  1  0
  9 27  1  0
  9 28  1  0
 10 11  2  0
 10 13  1  0
 12 16  1  0
 12 17  2  0
 13 15  2  0
 13 29  1  0
 15 30  1  0
 16 18  2  0
 17 19  1  0
 17 31  1  0
 18 20  1  0
 18 32  1  0
 19 20  2  0
 19 33  1  0
 20 34  1  0
 21 35  1  0
 21 36  1  0
 21 37  1  0
M  END
> <Name>
60606

> <PUBCHEM_COMPOUND_CID>
60606

> <Toxicity>
1

> <Data Set>
TrainingSet

$$$$
2812
  SciTegic12242523262D

 42 45  0  0  0  0            999 V2000
    3.2680   -1.7690    0.0000 Cl  0  0
    5.0000    1.2310    0.0000 N   0  0
    5.5000    2.7690    0.0000 N   0  0
    5.0000    0.2310    0.0000 C   0  0
    5.0000   -0.7690    0.0000 C   0  0
    6.0000    0.2310    0.0000 C   0  0
    4.0000    0.2310    0.0000 C   0  0
    4.1340   -1.2690    0.0000 C   0  0
    5.8660   -1.2690    0.0000 C   0  0
    6.5000    1.0970    0.0000 C   0  0
    3.5000   -0.6350    0.0000 C   0  0
    6.5000   -0.6350    0.0000 C   0  0
    3.5000    1.0970    0.0000 C   0  0
    4.1910    1.8180    0.0000 C   0  0
    5.8090    1.8180    0.0000 C   0  0
    4.5000    2.7690    0.0000 C   0  0
    4.1340   -2.2690    0.0000 C   0  0
    5.8660   -2.2690    0.0000 C   0  0
    7.5000    1.0970    0.0000 C   0  0
    2.5000   -0.6350    0.0000 C   0  0
    7.5000   -0.6350    0.0000 C   0  0
    2.5000    1.0970    0.0000 C   0  0
    5.0000   -2.7690    0.0000 C   0  0
    8.0000    0.2310    0.0000 C   0  0
    2.0000    0.2310    0.0000 C   0  0
    6.4030   -0.9590    0.0000 H   0  0
    6.1900    1.6340    0.0000 H   0  0
    3.8100   -1.1720    0.0000 H   0  0
    6.1900   -1.1720    0.0000 H   0  0
    3.8100    1.6340    0.0000 H   0  0
    3.6010    1.6270    0.0000 H   0  0
    6.3990    1.6270    0.0000 H   0  0
    4.1360    3.2710    0.0000 H   0  0
    3.5970   -2.5790    0.0000 H   0  0
    6.4030   -2.5790    0.0000 H   0  0
    7.8100    1.6340    0.0000 H   0  0
    2.1900   -1.1720    0.0000 H   0  0
    7.8100   -1.1720    0.0000 H   0  0
    2.1900    1.6340    0.0000 H   0  0
    5.0000   -3.3890    0.0000 H   0  0
    8.6200    0.2310    0.0000 H   0  0
    1.3800    0.2310    0.0000 H   0  0
  1  8  1  0
  2  4  1  0
  2 14  1  0
  2 15  1  0
  3 15  2  0
  3 16  1  0
  4  5  1  0
  4  6  1  0
  4  7  1  0
  5  8  2  0
  5  9  1  0
  6 10  2  0
  6 12  1  0
  7 11  2  0
  7 13  1  0
  8 17  1  0
  9 18  2  0
  9 26  1  0
 10 19  1  0
 10 27  1  0
 11 20  1  0
 11 28  1  0
 12 21  2  0
 12 29  1  0
 13 22  2  0
 13 30  1  0
 14 16  2  0
 14 31  1  0
 15 32  1  0
 16 33  1  0
 17 23  2  0
 17 34  1  0
 18 23  1  0
 18 35  1  0
 19 24  2  0
 19 36  1  0
 20 25  2  0
 20 37  1  0
 21 24  1  0
 21 38  1  0
 22 25  1  0
 22 39  1  0
 23 40  1  0
 24 41  1  0
 25 42  1  0
M  END
> <Name>
2812

> <PUBCHEM_COMPOUND_CID>
2812

> <Toxicity>
0

> <Data Set>
TrainingSet

$$$$
6098
  SciTegic12242523262D

 47 50  0  0  1  0            999 V2000
    3.7110    3.8710    0.0000 Cl  0  0
    7.7810    0.0310    0.0000 S   0  0
    5.1160   -1.9910    0.0000 O   0  0
    7.4210   -3.2810    0.0000 O   0  0
    9.0680   -2.7460    0.0000 O   0  0
    3.8890   -0.7880    0.0000 O   0  0
    2.0040    1.6240    0.0000 O   0  0
    6.8300   -1.2780    0.0000 N   0  0
    5.1160    0.4350    0.0000 N   0  0
    2.7120    2.3300    0.0000 N   0  0
    6.8300   -0.2780    0.0000 C   0  0  1  0  0  0
    8.3690   -0.7780    0.0000 C   0  0
    7.7810   -1.5870    0.0000 C   0  0  2  0  0  0
    5.8220   -0.2740    0.0000 C   0  0  1  0  0  0
    5.8220   -1.2820    0.0000 C   0  0
    9.1780   -0.1900    0.0000 C   0  0
    9.1780   -1.3660    0.0000 C   0  0
    8.0900   -2.5380    0.0000 C   0  0
    4.1500    0.1780    0.0000 C   0  0
    3.4440    0.8860    0.0000 C   0  0
    3.6020    1.8740    0.0000 C   0  0
    2.4560    0.7320    0.0000 C   0  0
    4.4940    2.3260    0.0000 C   0  0
    2.0000   -0.1580    0.0000 C   0  0
    4.5490    3.3240    0.0000 C   0  0
    5.3320    1.7800    0.0000 C   0  0
    5.4410    3.7770    0.0000 C   0  0
    6.2240    2.2320    0.0000 C   0  0
    6.2780    3.2300    0.0000 C   0  0
    6.6990    0.5620    0.0000 H   0  0
    7.3420   -2.0250    0.0000 H   0  0
    6.0610    0.2980    0.0000 H   0  0
    9.5420   -0.6920    0.0000 H   0  0
    9.6790    0.1740    0.0000 H   0  0
    8.8130    0.3110    0.0000 H   0  0
    8.8130   -1.8670    0.0000 H   0  0
    9.6790   -1.7300    0.0000 H   0  0
    9.5420   -0.8640    0.0000 H   0  0
    5.2780    1.0330    0.0000 H   0  0
    7.6120   -3.8710    0.0000 H   0  0
    1.4480    0.1250    0.0000 H   0  0
    1.7170   -0.7100    0.0000 H   0  0
    2.5520   -0.4410    0.0000 H   0  0
    5.2980    1.1600    0.0000 H   0  0
    5.4740    4.3960    0.0000 H   0  0
    6.7430    1.8930    0.0000 H   0  0
    6.8310    3.5110    0.0000 H   0  0
  1 25  1  0
  2 11  1  0
  2 12  1  0
  3 15  2  0
  4 18  1  0
  4 40  1  0
  5 18  2  0
  6 19  2  0
  7 10  1  0
  7 22  1  0
  8 11  1  0
  8 13  1  0
  8 15  1  0
 14  9  1  1
  9 19  1  0
  9 39  1  0
 10 21  2  0
 11 14  1  0
 11 30  1  6
 12 13  1  0
 12 16  1  0
 12 17  1  0
 13 18  1  6
 13 31  1  1
 14 15  1  0
 14 32  1  6
 16 33  1  0
 16 34  1  0
 16 35  1  0
 17 36  1  0
 17 37  1  0
 17 38  1  0
 19 20  1  0
 20 21  1  0
 20 22  2  0
 21 23  1  0
 22 24  1  0
 23 25  1  0
 23 26  2  0
 24 41  1  0
 24 42  1  0
 24 43  1  0
 25 27  2  0
 26 28  1  0
 26 44  1  0
 27 29  1  0
 27 45  1  0
 28 29  2  0
 28 46  1  0
 29 47  1  0
M  END
> <Name>
6098

> <PUBCHEM_COMPOUND_CID>
6098

> <Toxicity>
0

> <Data Set>
TrainingSet

$$$$
446220
  SciTegic12242523262D

 43 45  0  0  1  0            999 V2000
    5.5850   -0.3590    0.0000 O   0  0
    6.5410   -2.1050    0.0000 O   0  0
    8.2720   -2.0450    0.0000 O   0  0
    4.9930    1.2690    0.0000 O   0  0
    8.0970    2.2380    0.0000 N   0  0
    8.5750    0.2900    0.0000 C   0  0  1  0  0  0
    8.8340    1.2560    0.0000 C   0  0  1  0  0  0
    7.3540   -0.5760    0.0000 C   0  0  2  0  0  0
    9.9740   -0.2190    0.0000 C   0  0
   10.2330    0.7470    0.0000 C   0  0
    6.8000    0.9450    0.0000 C   0  0
    6.5250   -0.0170    0.0000 C   0  0  2  0  0  0
    7.5970    3.1040    0.0000 C   0  0
    7.3890   -1.5750    0.0000 C   0  0
    4.8190    0.2840    0.0000 C   0  0
    6.5760   -3.1040    0.0000 C   0  0
    3.8790   -0.0580    0.0000 C   0  0
    3.7060   -1.0430    0.0000 C   0  0
    3.1130    0.5850    0.0000 C   0  0
    2.7660   -1.3850    0.0000 C   0  0
    2.1740    0.2430    0.0000 C   0  0
    2.0000   -0.7420    0.0000 C   0  0
    8.3550   -0.5310    0.0000 H   0  0
    9.0540    2.0770    0.0000 H   0  0
    6.8120   -0.8760    0.0000 H   0  0
    9.7790   -0.8080    0.0000 H   0  0
   10.5680   -0.3970    0.0000 H   0  0
   10.8270    0.5690    0.0000 H   0  0
   10.4280    1.3360    0.0000 H   0  0
    6.7950    1.5650    0.0000 H   0  0
    6.1860    1.0280    0.0000 H   0  0
    6.4490   -0.6320    0.0000 H   0  0
    8.1340    3.4140    0.0000 H   0  0
    7.2870    3.6410    0.0000 H   0  0
    7.0600    2.7940    0.0000 H   0  0
    5.9560   -3.1260    0.0000 H   0  0
    6.5970   -3.7240    0.0000 H   0  0
    7.1950   -3.0830    0.0000 H   0  0
    4.1810   -1.4410    0.0000 H   0  0
    3.2210    1.1960    0.0000 H   0  0
    2.6580   -1.9950    0.0000 H   0  0
    1.6990    0.6420    0.0000 H   0  0
    1.4170   -0.9540    0.0000 H   0  0
 12  1  1  1
  1 15  1  0
  2 14  1  0
  2 16  1  0
  3 14  2  0
  4 15  2  0
  5  6  1  0
  5  7  1  0
  5 13  1  0
  6  8  1  0
  6  9  1  0
  6 23  1  1
  7 10  1  0
  7 11  1  0
  7 24  1  6
  8 12  1  0
  8 14  1  1
  8 25  1  6
  9 10  1  0
  9 26  1  0
  9 27  1  0
 10 28  1  0
 10 29  1  0
 11 12  1  0
 11 30  1  0
 11 31  1  0
 12 32  1  6
 13 33  1  0
 13 34  1  0
 13 35  1  0
 15 17  1  0
 16 36  1  0
 16 37  1  0
 16 38  1  0
 17 18  2  0
 17 19  1  0
 18 20  1  0
 18 39  1  0
 19 21  2  0
 19 40  1  0
 20 22  2  0
 20 41  1  0
 21 22  1  0
 21 42  1  0
 22 43  1  0
M  END
> <Name>
446220

> <PUBCHEM_COMPOUND_CID>
446220

> <Toxicity>
1

> <Data Set>
TestSet

$$$$
11626560
  SciTegic12242523262D

 52 55  0  0  1  0            999 V2000
    7.4890    3.5050    0.0000 Cl  0  0
    4.0250    3.5050    0.0000 Cl  0  0
    7.4890    5.5050    0.0000 F   0  0
    6.6230    2.0050    0.0000 O   0  0
    3.8080   -2.1980    0.0000 N   0  0
    2.5880   -4.9380    0.0000 N   0  0
    3.3080   -1.3320    0.0000 N   0  0
    7.4890   -0.4950    0.0000 N   0  0
    8.3550    1.0050    0.0000 N   0  0
    3.4010   -3.1110    0.0000 C   0  0
    3.9890   -3.9200    0.0000 C   0  0
    2.4070   -3.2160    0.0000 C   0  0
    3.5820   -4.8340    0.0000 C   0  0
    2.0000   -4.1290    0.0000 C   0  0
    4.7860   -1.9900    0.0000 C   0  0
    4.8910   -0.9950    0.0000 C   0  0
    3.9770   -0.5880    0.0000 C   0  0
    5.7570   -0.4950    0.0000 C   0  0
    5.7570    0.5050    0.0000 C   0  0
    6.6230   -0.9950    0.0000 C   0  0
    6.6230    1.0050    0.0000 C   0  0
    5.7570    2.5050    0.0000 C   0  0  1  0  0  0
    7.4890    0.5050    0.0000 C   0  0
    5.7570    3.5050    0.0000 C   0  0
    4.8910    2.0050    0.0000 C   0  0
    6.6230    4.0050    0.0000 C   0  0
    4.8910    4.0050    0.0000 C   0  0
    6.6230    5.0050    0.0000 C   0  0
    4.8910    5.0050    0.0000 C   0  0
    5.7570    5.5050    0.0000 C   0  0
    3.0370   -2.6100    0.0000 H   0  0
    4.5030   -4.2670    0.0000 H   0  0
    4.4200   -3.4740    0.0000 H   0  0
    2.4500   -2.5970    0.0000 H   0  0
    1.8050   -3.0660    0.0000 H   0  0
    3.5390   -5.4520    0.0000 H   0  0
    4.1840   -4.9840    0.0000 H   0  0
    1.4860   -3.7830    0.0000 H   0  0
    1.5690   -4.5750    0.0000 H   0  0
    2.3360   -5.5050    0.0000 H   0  0
    5.2470   -2.4050    0.0000 H   0  0
    3.8480    0.0180    0.0000 H   0  0
    5.2200    0.8150    0.0000 H   0  0
    6.6230   -1.6150    0.0000 H   0  0
    5.7570    1.8850    0.0000 H   0  0
    4.5810    2.5420    0.0000 H   0  0
    4.3540    1.6950    0.0000 H   0  0
    5.2010    1.4680    0.0000 H   0  0
    4.3540    5.3150    0.0000 H   0  0
    8.8920    0.6950    0.0000 H   0  0
    8.3550    1.6250    0.0000 H   0  0
    5.7570    6.1250    0.0000 H   0  0
  1 26  1  0
  2 27  1  0
  3 28  1  0
  4 21  1  0
  4 22  1  0
  5  7  1  0
  5 10  1  0
  5 15  1  0
  6 13  1  0
  6 14  1  0
  6 40  1  0
  7 17  2  0
  8 20  2  0
  8 23  1  0
  9 23  1  0
  9 50  1  0
  9 51  1  0
 10 11  1  0
 10 12  1  0
 10 31  1  0
 11 13  1  0
 11 32  1  0
 11 33  1  0
 12 14  1  0
 12 34  1  0
 12 35  1  0
 13 36  1  0
 13 37  1  0
 14 38  1  0
 14 39  1  0
 15 16  2  0
 15 41  1  0
 16 17  1  0
 16 18  1  0
 17 42  1  0
 18 19  2  0
 18 20  1  0
 19 21  1  0
 19 43  1  0
 20 44  1  0
 21 23  2  0
 22 24  1  0
 22 25  1  6
 22 45  1  1
 24 26  2  0
 24 27  1  0
 25 46  1  0
 25 47  1  0
 25 48  1  0
 26 28  1  0
 27 29  2  0
 28 30  2  0
 29 30  1  0
 29 49  1  0
 30 52  1  0
M  END
> <Name>
11626560

> <PUBCHEM_COMPOUND_CID>
11626560

> <Toxicity>
1

> <Data Set>
TrainingSet

$$$$
27503
  SciTegic12242523262D

 48 51  0  0  0  0            999 V2000
    6.3570   -2.5280    0.0000 O   0  0
    4.6600    0.4920    0.0000 O   0  0
    6.3800   -0.5280    0.0000 O   0  0
    8.1060   -5.5620    0.0000 O   0  0
    2.9770    3.5630    0.0000 O   0  0
    8.1060   -2.5620    0.0000 O   0  0
    5.5390    2.0030    0.0000 O   0  0
   10.7040   -5.0620    0.0000 O   0  5
    3.0230    5.5630    0.0000 O   0  5
    9.8380   -6.5620    0.0000 O   0  0
    4.7550    5.5230    0.0000 O   0  0
    5.5090   -1.0180    0.0000 C   0  0
    5.4970   -2.0180    0.0000 C   0  0
    4.6480   -0.5080    0.0000 C   0  0
    6.3460   -3.5280    0.0000 C   0  0
    3.8000    1.0020    0.0000 C   0  0
    7.2400   -4.0620    0.0000 C   0  0
    3.8080    2.0440    0.0000 C   0  0
    7.2400   -5.0620    0.0000 C   0  0
    2.9540    2.5640    0.0000 C   0  0
    5.4400   -4.0420    0.0000 C   0  0
    2.8900    0.4950    0.0000 C   0  0
    8.1060   -3.5620    0.0000 C   0  0
    4.6850    2.5230    0.0000 C   0  0
    6.3460   -5.5970    0.0000 C   0  0
    2.0320    2.0780    0.0000 C   0  0
    5.4400   -5.0830    0.0000 C   0  0
    2.0000    1.0370    0.0000 C   0  0
    8.9720   -4.0620    0.0000 C   0  0
    4.7080    3.5230    0.0000 C   0  0
    8.9720   -5.0620    0.0000 C   0  0
    3.8540    4.0430    0.0000 C   0  0
    9.8380   -5.5620    0.0000 C   0  0
    3.8770    5.0430    0.0000 C   0  0
    5.5160   -0.3980    0.0000 H   0  0
    4.8880   -1.9030    0.0000 H   0  0
    5.2780   -2.5980    0.0000 H   0  0
    4.0390   -0.3930    0.0000 H   0  0
    4.4300   -1.0880    0.0000 H   0  0
    4.9040   -3.7300    0.0000 H   0  0
    2.8780   -0.1250    0.0000 H   0  0
    6.3530   -6.2170    0.0000 H   0  0
    1.5060    2.4060    0.0000 H   0  0
    4.9040   -5.3950    0.0000 H   0  0
    1.4550    0.7410    0.0000 H   0  0
    6.3880    0.0920    0.0000 H   0  0
    9.5090   -3.7520    0.0000 H   0  0
    5.2520    3.8210    0.0000 H   0  0
  1 13  1  0
  1 15  1  0
  2 14  1  0
  2 16  1  0
  3 12  1  0
  3 46  1  0
  4 19  1  0
  4 31  1  0
  5 20  1  0
  5 32  1  0
  6 23  2  0
  7 24  2  0
  8 33  1  0
  9 34  1  0
 10 33  2  0
 11 34  2  0
 12 13  1  0
 12 14  1  0
 12 35  1  0
 13 36  1  0
 13 37  1  0
 14 38  1  0
 14 39  1  0
 15 17  2  0
 15 21  1  0
 16 18  2  0
 16 22  1  0
 17 19  1  0
 17 23  1  0
 18 20  1  0
 18 24  1  0
 19 25  2  0
 20 26  2  0
 21 27  2  0
 21 40  1  0
 22 28  2  0
 22 41  1  0
 23 29  1  0
 24 30  1  0
 25 27  1  0
 25 42  1  0
 26 28  1  0
 26 43  1  0
 27 44  1  0
 28 45  1  0
 29 31  2  0
 29 47  1  0
 30 32  2  0
 30 48  1  0
 31 33  1  0
 32 34  1  0
M  CHG  2   8  -1   9  -1
M  END
> <Name>
27503

> <PUBCHEM_COMPOUND_CID>
27503

> <Toxicity>
0

> <Data Set>
TrainingSet

$$$$
2907
  SciTegic12242523262D

 29 29  0  0  1  0            999 V2000
    5.0000   -2.7320    0.0000 Cl  0  0
    2.0000   -1.0000    0.0000 Cl  0  0
    5.0000    0.7320    0.0000 P   0  0
    5.8660    1.2320    0.0000 O   0  0
    5.5000   -0.1340    0.0000 O   0  0
    4.5000   -0.1340    0.0000 N   0  0
    4.1340    1.2320    0.0000 N   0  0
    4.1340    2.2320    0.0000 C   0  0
    5.0000    2.7320    0.0000 C   0  0
    5.8660    2.2320    0.0000 C   0  0
    5.0000   -1.0000    0.0000 C   0  0
    3.5000   -0.1340    0.0000 C   0  0
    4.5000   -1.8660    0.0000 C   0  0
    3.0000   -1.0000    0.0000 C   0  0
    3.9220    2.8150    0.0000 H   0  0
    3.5230    2.1240    0.0000 H   0  0
    5.3980    3.2070    0.0000 H   0  0
    4.6020    3.2070    0.0000 H   0  0
    3.5970    0.9220    0.0000 H   0  0
    6.4770    2.1240    0.0000 H   0  0
    6.0780    2.8150    0.0000 H   0  0
    5.4750   -1.3980    0.0000 H   0  0
    5.4750   -0.6020    0.0000 H   0  0
    3.6080    0.4770    0.0000 H   0  0
    2.9170    0.0780    0.0000 H   0  0
    4.0250   -1.4680    0.0000 H   0  0
    4.0250   -2.2650    0.0000 H   0  0
    2.8920   -1.6110    0.0000 H   0  0
    3.5830   -1.2120    0.0000 H   0  0
  1 13  1  0
  2 14  1  0
  3  4  1  0
  3  5  2  0
  3  6  1  0
  3  7  1  0
  4 10  1  0
  6 11  1  0
  6 12  1  0
  7  8  1  0
  7 19  1  0
  8  9  1  0
  8 15  1  0
  8 16  1  0
  9 10  1  0
  9 17  1  0
  9 18  1  0
 10 20  1  0
 10 21  1  0
 11 13  1  0
 11 22  1  0
 11 23  1  0
 12 14  1  0
 12 24  1  0
 12 25  1  0
 13 26  1  0
 13 27  1  0
 14 28  1  0
 14 29  1  0
M  END
> <Name>
2907

> <PUBCHEM_COMPOUND_CID>
2907

> <Toxicity>
1

> <Data Set>
TrainingSet

$$$$
6234
  SciTegic12242523262D

 13 13  0  0  1  0            999 V2000
    4.5690   -0.5590    0.0000 O   0  0
    2.0000   -0.8680    0.0000 O   0  0
    3.7600   -1.1470    0.0000 N   0  0
    2.6720    1.2010    0.0000 N   0  0
    3.2600    0.3920    0.0000 C   0  0  2  0  0  0
    4.2600    0.3920    0.0000 C   0  0
    2.9510   -0.5590    0.0000 C   0  0
    2.6480    0.2950    0.0000 H   0  0
    4.8660    0.5210    0.0000 H   0  0
    4.1950    1.0080    0.0000 H   0  0
    3.7600   -1.7670    0.0000 H   0  0
    2.9240    1.7670    0.0000 H   0  0
    2.0560    1.1360    0.0000 H   0  0
  1  3  1  0
  1  6  1  0
  2  7  2  0
  3  7  1  0
  3 11  1  0
  5  4  1  6
  4 12  1  0
  4 13  1  0
  5  6  1  0
  5  7  1  0
  5  8  1  1
  6  9  1  0
  6 10  1  0
M  END
> <Name>
6234

> <PUBCHEM_COMPOUND_CID>
6234

> <Toxicity>
1

> <Data Set>
TrainingSet

$$$$
6253
  SciTegic12242523262D

 30 31  0  0  1  0            999 V2000
    5.0300   -1.2860    0.0000 O   0  0
    2.4610   -0.9770    0.0000 O   0  0
    3.1330   -3.0460    0.0000 O   0  0
    6.3030   -2.9410    0.0000 O   0  0
    5.9530    0.3020    0.0000 O   0  0
    4.2210    0.3020    0.0000 N   0  0
    5.0870    1.8020    0.0000 N   0  0
    4.2210    3.3020    0.0000 N   0  0
    3.4120   -1.2860    0.0000 C   0  0  1  0  0  0
    3.7210   -2.2370    0.0000 C   0  0  1  0  0  0
    4.2210   -0.6980    0.0000 C   0  0  1  0  0  0
    4.7210   -2.2370    0.0000 C   0  0  1  0  0  0
    5.3090   -3.0460    0.0000 C   0  0
    3.3550    0.8020    0.0000 C   0  0
    5.0870    0.8020    0.0000 C   0  0
    3.3550    1.8020    0.0000 C   0  0
    4.2210    2.3020    0.0000 C   0  0
    2.9730   -1.7240    0.0000 H   0  0
    3.1080   -2.1400    0.0000 H   0  0
    3.6680   -0.4160    0.0000 H   0  0
    5.3330   -2.1400    0.0000 H   0  0
    4.7510   -3.3180    0.0000 H   0  0
    5.4800   -3.6420    0.0000 H   0  0
    2.0000   -1.3920    0.0000 H   0  0
    3.3850   -3.6120    0.0000 H   0  0
    2.8180    0.4920    0.0000 H   0  0
    6.6680   -3.4430    0.0000 H   0  0
    2.8180    2.1120    0.0000 H   0  0
    3.6840    3.6120    0.0000 H   0  0
    4.7580    3.6120    0.0000 H   0  0
  1 11  1  0
  1 12  1  0
  9  2  1  6
  2 24  1  0
 10  3  1  1
  3 25  1  0
  4 13  1  0
  4 27  1  0
  5 15  2  0
 11  6  1  6
  6 14  1  0
  6 15  1  0
  7 15  1  0
  7 17  2  0
  8 17  1  0
  8 29  1  0
  8 30  1  0
  9 10  1  0
  9 11  1  0
  9 18  1  1
 10 12  1  0
 10 19  1  6
 11 20  1  1
 12 13  1  6
 12 21  1  1
 13 22  1  0
 13 23  1  0
 14 16  2  0
 14 26  1  0
 16 17  1  0
 16 28  1  0
M  END
> <Name>
6253

> <PUBCHEM_COMPOUND_CID>
6253

> <Toxicity>
1

> <Data Set>
TrainingSet

$$$$
135398738
  SciTegic12242523262D

 23 23  0  0  0  0            999 V2000
    2.0540   -0.9870    0.0000 O   0  0
    4.5580   -1.9350    0.0000 N   0  0
    3.2890    2.1360    0.0000 N   0  0
    5.0580   -0.3960    0.0000 N   0  0
    3.4700    0.4130    0.0000 N   0  0
    3.8770    1.3260    0.0000 N   0  0
    2.5900   -2.6340    0.0000 N   0  0
    3.7490   -1.3470    0.0000 C   0  0
    4.0580   -0.3960    0.0000 C   0  0
    5.3670   -1.3470    0.0000 C   0  0
    2.7980   -1.6560    0.0000 C   0  0
    3.6960    3.0490    0.0000 C   0  0
    2.2940    2.0310    0.0000 C   0  0
    4.5580   -2.5550    0.0000 H   0  0
    5.9560   -1.5390    0.0000 H   0  0
    4.2620    2.7970    0.0000 H   0  0
    3.9480    3.6160    0.0000 H   0  0
    3.1290    3.3010    0.0000 H   0  0
    2.2300    2.6480    0.0000 H   0  0
    1.6780    1.9660    0.0000 H   0  0
    2.3590    1.4140    0.0000 H   0  0
    2.0000   -2.8260    0.0000 H   0  0
    3.0500   -3.0490    0.0000 H   0  0
  1 11  2  0
  2  8  1  0
  2 10  1  0
  2 14  1  0
  3  6  1  0
  3 12  1  0
  3 13  1  0
  4  9  1  0
  4 10  2  0
  5  6  2  0
  5  9  1  0
  7 11  1  0
  7 22  1  0
  7 23  1  0
  8  9  2  0
  8 11  1  0
 10 15  1  0
 12 16  1  0
 12 17  1  0
 12 18  1  0
 13 19  1  0
 13 20  1  0
 13 21  1  0
M  END
> <Name>
135398738

> <PUBCHEM_COMPOUND_CID>
135398738

> <Toxicity>
1

> <Data Set>
TestSet

$$$$
28417
  SciTegic12242523262D

 52 56  0  0  1  0            999 V2000
    8.7320   -1.8900    0.0000 O   0  0
    2.6080    2.2600    0.0000 O   0  0
    2.0000    1.4220    0.0000 N   0  0
    8.0360    0.4150    0.0000 C   0  0  2  0  0  0
    8.0440   -0.6270    0.0000 C   0  0  2  0  0  0
    7.1260    0.9220    0.0000 C   0  0  1  0  0  0
    6.2600    0.4220    0.0000 C   0  0  1  0  0  0
    5.3940    0.9220    0.0000 C   0  0  2  0  0  0
    7.1420   -1.1480    0.0000 C   0  0
    9.0320   -0.9360    0.0000 C   0  0  2  0  0  0
    6.2440   -0.6200    0.0000 C   0  0
    9.0190    0.7400    0.0000 C   0  0
    7.1260    1.9220    0.0000 C   0  0
    9.6330   -0.0940    0.0000 C   0  0
    5.3940    1.9220    0.0000 C   0  0
    8.0510   -1.6270    0.0000 C   0  0
    6.2600    2.4220    0.0000 C   0  0
    4.5000    0.3870    0.0000 C   0  0
    5.3940   -0.0780    0.0000 C   0  0
    9.8460   -1.5170    0.0000 C   0  0
    4.5000    2.4560    0.0000 C   0  0
    3.5940    0.9010    0.0000 C   0  0
    3.5940    1.9430    0.0000 C   0  0
    2.6080    0.5840    0.0000 C   0  0
   10.6610   -2.0970    0.0000 C   0  0
    8.1160    1.2610    0.0000 H   0  0
    7.8580    1.3520    0.0000 H   0  0
    6.9920   -0.0090    0.0000 H   0  0
    6.7410   -1.6200    0.0000 H   0  0
    7.5390   -1.6240    0.0000 H   0  0
    5.6340   -0.5040    0.0000 H   0  0
    6.0260   -1.2000    0.0000 H   0  0
    9.5540    1.0530    0.0000 H   0  0
    8.7630    1.3050    0.0000 H   0  0
    7.7360    1.8140    0.0000 H   0  0
    7.3380    2.5040    0.0000 H   0  0
   10.0970   -0.5050    0.0000 H   0  0
   10.0910    0.3250    0.0000 H   0  0
    7.4310   -1.6310    0.0000 H   0  0
    8.0560   -2.2470    0.0000 H   0  0
    8.6710   -1.6220    0.0000 H   0  0
    6.6580    2.8970    0.0000 H   0  0
    5.8610    2.8970    0.0000 H   0  0
    4.1060   -0.0920    0.0000 H   0  0
    4.9040   -0.0830    0.0000 H   0  0
    4.7740   -0.0780    0.0000 H   0  0
    5.3940   -0.6980    0.0000 H   0  0
    6.0140   -0.0780    0.0000 H   0  0
    4.5070    3.0760    0.0000 H   0  0
    9.1510   -2.3470    0.0000 H   0  0
    2.4150   -0.0060    0.0000 H   0  0
   11.1660   -2.4560    0.0000 H   0  0
 10  1  1  6
  1 50  1  0
  2  3  1  0
  2 23  1  0
  3 24  2  0
  4  5  1  0
  4  6  1  0
  4 12  1  0
  4 26  1  1
  5  9  1  0
  5 10  1  0
  5 16  1  6
  6  7  1  0
  6 13  1  0
  6 27  1  6
  7  8  1  0
  7 11  1  0
  7 28  1  1
  8 15  1  0
  8 18  1  0
  8 19  1  6
  9 11  1  0
  9 29  1  0
  9 30  1  0
 10 14  1  0
 10 20  1  1
 11 31  1  0
 11 32  1  0
 12 14  1  0
 12 33  1  0
 12 34  1  0
 13 17  1  0
 13 35  1  0
 13 36  1  0
 14 37  1  0
 14 38  1  0
 15 17  1  0
 15 21  2  0
 16 39  1  0
 16 40  1  0
 16 41  1  0
 17 42  1  0
 17 43  1  0
 18 22  1  0
 18 44  1  0
 18 45  1  0
 19 46  1  0
 19 47  1  0
 19 48  1  0
 20 25  3  0
 21 23  1  0
 21 49  1  0
 22 23  2  0
 22 24  1  0
 24 51  1  0
 25 52  1  0
M  END
> <Name>
28417

> <PUBCHEM_COMPOUND_CID>
28417

> <Toxicity>
1

> <Data Set>
TrainingSet

$$$$
6914273
  SciTegic12242523262D

 33 35  0  0  0  0            999 V2000
    4.7200   -0.2770    0.0000 O   0  0
    2.0000    4.4660    0.0000 O   0  0
    5.5200    4.4660    0.0000 O   0  0
    6.3950   -5.3650    0.0000 O   0  5
    4.6630   -5.3650    0.0000 O   0  0
    4.2600    3.2060    0.0000 N   0  0
    3.7600    4.7450    0.0000 N   0  0
    4.8480    2.3970    0.0000 N   0  0
    5.5290   -4.8650    0.0000 N   0  3
    3.2600    3.2060    0.0000 C   0  0
    5.5290   -0.8650    0.0000 C   0  0
    5.5290   -1.8650    0.0000 C   0  0
    5.0290    0.6740    0.0000 C   0  0
    2.9510    4.1570    0.0000 C   0  0
    4.5690    4.1570    0.0000 C   0  0
    6.3380   -0.2770    0.0000 C   0  0
    6.0290    0.6740    0.0000 C   0  0
    6.3950   -2.3650    0.0000 C   0  0
    4.6630   -2.3650    0.0000 C   0  0
    4.4410    1.4830    0.0000 C   0  0
    5.5290   -3.8650    0.0000 C   0  0
    6.3950   -3.3650    0.0000 C   0  0
    4.6630   -3.3650    0.0000 C   0  0
    2.6540    3.0770    0.0000 H   0  0
    3.3250    2.5890    0.0000 H   0  0
    6.9280   -0.4680    0.0000 H   0  0
    3.7600    5.3650    0.0000 H   0  0
    6.3930    1.1760    0.0000 H   0  0
    6.9320   -2.0550    0.0000 H   0  0
    4.1260   -2.0550    0.0000 H   0  0
    3.8240    1.4180    0.0000 H   0  0
    6.9320   -3.6750    0.0000 H   0  0
    4.1260   -3.6750    0.0000 H   0  0
  1 11  1  0
  1 13  1  0
  2 14  2  0
  3 15  2  0
  4  9  1  0
  5  9  2  0
  6  8  1  0
  6 10  1  0
  6 15  1  0
  7 14  1  0
  7 15  1  0
  7 27  1  0
  8 20  2  0
  9 21  1  0
 10 14  1  0
 10 24  1  0
 10 25  1  0
 11 12  1  0
 11 16  2  0
 12 18  2  0
 12 19  1  0
 13 17  2  0
 13 20  1  0
 16 17  1  0
 16 26  1  0
 17 28  1  0
 18 22  1  0
 18 29  1  0
 19 23  2  0
 19 30  1  0
 20 31  1  0
 21 22  2  0
 21 23  1  0
 22 32  1  0
 23 33  1  0
M  CHG  2   4  -1   9   1
M  END
> <Name>
6914273

> <PUBCHEM_COMPOUND_CID>
6914273

> <Toxicity>
1

> <Data Set>
TrainingSet

$$$$
2955
  SciTegic12242523262D

 29 30  0  0  0  0            999 V2000
    3.0000    0.0000    0.0000 S   0  0
    4.0000    0.0000    0.0000 O   0  0
    2.0000    0.0000    0.0000 O   0  0
    3.0000   -4.0000    0.0000 N   0  0
    3.0000    4.0000    0.0000 N   0  0
    3.0000   -1.0000    0.0000 C   0  0
    3.0000    1.0000    0.0000 C   0  0
    2.1340   -1.5000    0.0000 C   0  0
    3.8660    1.5000    0.0000 C   0  0
    3.8660   -1.5000    0.0000 C   0  0
    2.1340    1.5000    0.0000 C   0  0
    2.1340   -2.5000    0.0000 C   0  0
    3.8660    2.5000    0.0000 C   0  0
    3.8660   -2.5000    0.0000 C   0  0
    2.1340    2.5000    0.0000 C   0  0
    3.0000   -3.0000    0.0000 C   0  0
    3.0000    3.0000    0.0000 C   0  0
    1.5970   -1.1900    0.0000 H   0  0
    4.4030    1.1900    0.0000 H   0  0
    4.4030   -1.1900    0.0000 H   0  0
    1.5970    1.1900    0.0000 H   0  0
    1.5970   -2.8100    0.0000 H   0  0
    4.4030    2.8100    0.0000 H   0  0
    4.4030   -2.8100    0.0000 H   0  0
    1.5970    2.8100    0.0000 H   0  0
    2.4630   -4.3100    0.0000 H   0  0
    3.5370   -4.3100    0.0000 H   0  0
    3.5370    4.3100    0.0000 H   0  0
    2.4630    4.3100    0.0000 H   0  0
  1  2  2  0
  1  3  2  0
  1  6  1  0
  1  7  1  0
  4 16  1  0
  4 26  1  0
  4 27  1  0
  5 17  1  0
  5 28  1  0
  5 29  1  0
  6  8  2  0
  6 10  1  0
  7  9  2  0
  7 11  1  0
  8 12  1  0
  8 18  1  0
  9 13  1  0
  9 19  1  0
 10 14  2  0
 10 20  1  0
 11 15  2  0
 11 21  1  0
 12 16  2  0
 12 22  1  0
 13 17  2  0
 13 23  1  0
 14 16  1  0
 14 24  1  0
 15 17  1  0
 15 25  1  0
M  END
> <Name>
2955

> <PUBCHEM_COMPOUND_CID>
2955

> <Toxicity>
1

> <Data Set>
TrainingSet

$$$$
91801202
  SciTegic12242523262D

 55 59  0  0  1  0            999 V2000
    2.0000   -0.6230    0.0000 Cl  0  0
    7.7190    0.3800    0.0000 O   0  0
   11.6820   -1.4340    0.0000 O   0  0
    8.0790   -1.3140    0.0000 N   0  0
    5.5440   -2.4280    0.0000 N   0  0
    5.5440   -0.8180    0.0000 N   0  0
    9.0060    1.5390    0.0000 N   0  0
    9.2140    2.5170    0.0000 N   0  0
    8.0120    1.4340    0.0000 N   0  0
    7.1280   -1.6230    0.0000 C   0  0  1  0  0  0
    7.1280   -2.6230    0.0000 C   0  0
    8.0790   -2.9320    0.0000 C   0  0
    8.6670   -2.1230    0.0000 C   0  0
    6.1280   -1.6230    0.0000 C   0  0
    6.8190   -0.6720    0.0000 C   0  0
    8.3880   -0.3630    0.0000 C   0  0
    4.5980   -2.1230    0.0000 C   0  0
    4.5980   -1.1230    0.0000 C   0  0
    9.3660   -0.1550    0.0000 C   0  0
    3.7320   -0.6230    0.0000 C   0  0
    3.7320   -2.6230    0.0000 C   0  0
    9.6750    0.7960    0.0000 C   0  0
   10.0350   -0.8980    0.0000 C   0  0
    2.8660   -1.1230    0.0000 C   0  0
    2.8660   -2.1230    0.0000 C   0  0
    3.7320    0.3770    0.0000 C   0  0
   10.6530    1.0040    0.0000 C   0  0
   11.0130   -0.6900    0.0000 C   0  0
   11.3220    0.2610    0.0000 C   0  0
    8.3480    3.0170    0.0000 C   0  0
    7.6050    2.3480    0.0000 C   0  0
   12.6610   -1.2260    0.0000 C   0  0
    6.5110   -2.5580    0.0000 H   0  0
    6.9990   -3.2300    0.0000 H   0  0
    7.8270   -3.4990    0.0000 H   0  0
    8.6160   -3.2420    0.0000 H   0  0
    9.1280   -2.5380    0.0000 H   0  0
    9.1280   -1.7080    0.0000 H   0  0
    7.4080   -0.4800    0.0000 H   0  0
    6.6270   -0.0820    0.0000 H   0  0
    6.2290   -0.8640    0.0000 H   0  0
    5.7370   -3.0170    0.0000 H   0  0
    3.7320   -3.2430    0.0000 H   0  0
    9.8440   -1.4880    0.0000 H   0  0
    2.3290   -2.4330    0.0000 H   0  0
    4.3520    0.3770    0.0000 H   0  0
    3.7320    0.9970    0.0000 H   0  0
    3.1120    0.3770    0.0000 H   0  0
   10.8450    1.5940    0.0000 H   0  0
   11.9290    0.3900    0.0000 H   0  0
    8.2830    3.6340    0.0000 H   0  0
    6.9980    2.4770    0.0000 H   0  0
   12.7900   -1.8320    0.0000 H   0  0
   13.2670   -1.0970    0.0000 H   0  0
   12.5320   -0.6190    0.0000 H   0  0
  1 24  1  0
  2 16  2  0
  3 28  1  0
  3 32  1  0
  4 10  1  0
  4 13  1  0
  4 16  1  0
  5 14  1  0
  5 17  1  0
  5 42  1  0
  6 14  2  0
  6 18  1  0
  7  8  1  0
  7  9  1  0
  7 22  1  0
  8 30  2  0
  9 31  2  0
 10 11  1  0
 10 14  1  1
 10 15  1  6
 11 12  1  0
 11 33  1  0
 11 34  1  0
 12 13  1  0
 12 35  1  0
 12 36  1  0
 13 37  1  0
 13 38  1  0
 15 39  1  0
 15 40  1  0
 15 41  1  0
 16 19  1  0
 17 18  1  0
 17 21  2  0
 18 20  2  0
 19 22  1  0
 19 23  2  0
 20 24  1  0
 20 26  1  0
 21 25  1  0
 21 43  1  0
 22 27  2  0
 23 28  1  0
 23 44  1  0
 24 25  2  0
 25 45  1  0
 26 46  1  0
 26 47  1  0
 26 48  1  0
 27 29  1  0
 27 49  1  0
 28 29  2  0
 29 50  1  0
 30 31  1  0
 30 51  1  0
 31 52  1  0
 32 53  1  0
 32 54  1  0
 32 55  1  0
M  END
> <Name>
91801202

> <PUBCHEM_COMPOUND_CID>
91801202

> <Toxicity>
1

> <Data Set>
TrainingSet

$$$$
30323
  SciTegic12242523262D

 67 71  0  0  1  0            999 V2000
    6.0010   -0.9440    0.0000 O   0  0
    4.2690   -0.9440    0.0000 O   0  0
    7.2920   -3.8690    0.0000 O   0  0
    2.5370   -2.9440    0.0000 O   0  0
    6.8880    0.5640    0.0000 O   0  0
   10.3750   -1.3960    0.0000 O   0  0
    7.8060   -4.7270    0.0000 O   0  0
    7.7140    2.1050    0.0000 O   0  0
   11.2620    0.1110    0.0000 O   0  0
    8.5770    3.7280    0.0000 O   0  0
    4.2690   -3.9440    0.0000 N   0  0
    6.8670   -1.4440    0.0000 C   0  0  1  0  0  0
    7.7790   -2.9960    0.0000 C   0  0  2  0  0  0
    6.8710   -2.4850    0.0000 C   0  0
    8.6710   -2.4570    0.0000 C   0  0
    7.7710   -0.9260    0.0000 C   0  0
    8.6430   -1.4160    0.0000 C   0  0
    5.1350   -1.4440    0.0000 C   0  0  2  0  0  0
    5.1350   -2.4440    0.0000 C   0  0
    4.2690   -2.9440    0.0000 C   0  0  1  0  0  0
    3.4030   -2.4440    0.0000 C   0  0  1  0  0  0
    3.4030   -1.4440    0.0000 C   0  0  2  0  0  0
    7.7600    0.0740    0.0000 C   0  0
    8.2920   -3.8540    0.0000 C   0  0
    9.5030   -0.9060    0.0000 C   0  0
    8.6200    0.5840    0.0000 C   0  0
    9.4920    0.0940    0.0000 C   0  0
    2.5370   -0.9440    0.0000 C   0  0
    9.2920   -3.8380    0.0000 C   0  0
    8.5920    1.6250    0.0000 C   0  0
   10.3960    0.6110    0.0000 C   0  0
    9.4840    2.1630    0.0000 C   0  0
   10.3920    1.6530    0.0000 C   0  0
    9.4540    3.2480    0.0000 C   0  0
   11.3330    2.1920    0.0000 C   0  0
   10.3830    3.8080    0.0000 C   0  0
   11.3290    3.2770    0.0000 C   0  0
    8.5540    4.7270    0.0000 C   0  0
    6.3310   -1.7540    0.0000 H   0  0
    6.2600   -2.3810    0.0000 H   0  0
    6.6640   -3.0700    0.0000 H   0  0
    8.8960   -3.0350    0.0000 H   0  0
    9.2790   -2.3350    0.0000 H   0  0
    5.6720   -1.7540    0.0000 H   0  0
    5.3470   -3.0260    0.0000 H   0  0
    5.7460   -2.3360    0.0000 H   0  0
    4.8060   -3.2540    0.0000 H   0  0
    3.4030   -3.0640    0.0000 H   0  0
    3.4030   -0.8240    0.0000 H   0  0
    6.6730   -3.8790    0.0000 H   0  0
    2.8470   -0.4060    0.0000 H   0  0
    2.0000   -0.6340    0.0000 H   0  0
    2.2270   -1.4800    0.0000 H   0  0
    3.7320   -4.2540    0.0000 H   0  0
    4.8060   -4.2540    0.0000 H   0  0
    9.3020   -4.4580    0.0000 H   0  0
    9.9120   -3.8290    0.0000 H   0  0
    9.2830   -3.2180    0.0000 H   0  0
    2.0000   -2.6340    0.0000 H   0  0
    6.8810    1.1840    0.0000 H   0  0
   10.3820   -2.0160    0.0000 H   0  0
   11.8700    1.8820    0.0000 H   0  0
   10.3740    4.4280    0.0000 H   0  0
   11.8640    3.5910    0.0000 H   0  0
    9.1740    4.7420    0.0000 H   0  0
    8.5400    5.3470    0.0000 H   0  0
    7.9340    4.7130    0.0000 H   0  0
 12  1  1  6
 18  1  1  1
  2 18  1  0
  2 22  1  0
 13  3  1  6
  3 50  1  0
 21  4  1  6
  4 59  1  0
  5 23  1  0
  5 60  1  0
  6 25  1  0
  6 61  1  0
  7 24  2  0
  8 30  2  0
  9 31  2  0
 10 34  1  0
 10 38  1  0
 20 11  1  6
 11 54  1  0
 11 55  1  0
 12 14  1  0
 12 16  1  0
 12 39  1  1
 13 14  1  0
 13 15  1  0
 13 24  1  1
 14 40  1  0
 14 41  1  0
 15 17  1  0
 15 42  1  0
 15 43  1  0
 16 17  1  0
 16 23  2  0
 17 25  2  0
 18 19  1  0
 18 44  1  6
 19 20  1  0
 19 45  1  0
 19 46  1  0
 20 21  1  0
 20 47  1  1
 21 22  1  0
 21 48  1  1
 22 28  1  6
 22 49  1  1
 23 26  1  0
 24 29  1  0
 25 27  1  0
 26 27  2  0
 26 30  1  0
 27 31  1  0
 28 51  1  0
 28 52  1  0
 28 53  1  0
 29 56  1  0
 29 57  1  0
 29 58  1  0
 30 32  1  0
 31 33  1  0
 32 33  2  0
 32 34  1  0
 33 35  1  0
 34 36  2  0
 35 37  2  0
 35 62  1  0
 36 37  1  0
 36 63  1  0
 37 64  1  0
 38 65  1  0
 38 66  1  0
 38 67  1  0
M  END
> <Name>
30323

> <PUBCHEM_COMPOUND_CID>
30323

> <Toxicity>
1

> <Data Set>
TrainingSet

$$$$
5881
  SciTegic12242523262D

 49 52  0  0  1  0            999 V2000
    9.1860    2.1770    0.0000 O   0  0
    2.5360   -2.1310    0.0000 O   0  0
    6.1970   -0.0780    0.0000 C   0  0  1  0  0  0
    7.0630   -0.5780    0.0000 C   0  0  2  0  0  0
    7.9290   -0.0780    0.0000 C   0  0  1  0  0  0
    7.9290    0.9220    0.0000 C   0  0  2  0  0  0
    5.2870   -0.5850    0.0000 C   0  0  2  0  0  0
    6.1970    0.9220    0.0000 C   0  0
    7.0630    1.4220    0.0000 C   0  0
    8.8750   -0.3830    0.0000 C   0  0
    7.0790   -1.6200    0.0000 C   0  0
    5.2790   -1.6270    0.0000 C   0  0
    4.3600   -0.0210    0.0000 C   0  0
    8.8750    1.2260    0.0000 C   0  0
    9.4590    0.4220    0.0000 C   0  0
    6.1810   -2.1480    0.0000 C   0  0
    7.9290    1.9220    0.0000 C   0  0
    5.2940    0.4150    0.0000 C   0  0
    4.3430   -2.1770    0.0000 C   0  0
    3.4120   -0.5490    0.0000 C   0  0
    3.4040   -1.6340    0.0000 C   0  0  2  0  0  0
    6.9330    0.3460    0.0000 H   0  0
    7.8020   -0.9980    0.0000 H   0  0
    8.0190   -0.9240    0.0000 H   0  0
    5.9850    1.5040    0.0000 H   0  0
    5.5860    0.8140    0.0000 H   0  0
    7.4610    1.8960    0.0000 H   0  0
    6.6640    1.8960    0.0000 H   0  0
    8.6240   -0.9500    0.0000 H   0  0
    9.4120   -0.6920    0.0000 H   0  0
    7.2970   -2.2000    0.0000 H   0  0
    7.6880   -1.5050    0.0000 H   0  0
    4.7680    0.4450    0.0000 H   0  0
    3.9700    0.4610    0.0000 H   0  0
    9.9200    0.0070    0.0000 H   0  0
    9.9200    0.8360    0.0000 H   0  0
    6.1830   -2.7680    0.0000 H   0  0
    8.5490    1.9220    0.0000 H   0  0
    7.9290    2.5420    0.0000 H   0  0
    7.3090    1.9220    0.0000 H   0  0
    5.9140    0.4100    0.0000 H   0  0
    5.2990    1.0350    0.0000 H   0  0
    4.6740    0.4190    0.0000 H   0  0
    3.9460   -2.6530    0.0000 H   0  0
    4.7440   -2.6500    0.0000 H   0  0
    3.2080    0.0360    0.0000 H   0  0
    2.8000   -0.6510    0.0000 H   0  0
    2.8690   -1.3210    0.0000 H   0  0
    2.0000   -1.8190    0.0000 H   0  0
  1 14  2  0
 21  2  1  1
  2 49  1  0
  3  4  1  0
  3  7  1  0
  3  8  1  0
  3 22  1  6
  4  5  1  0
  4 11  1  0
  4 23  1  1
  5  6  1  0
  5 10  1  0
  5 24  1  6
  6  9  1  0
  6 14  1  0
  6 17  1  1
  7 12  1  0
  7 13  1  0
  7 18  1  1
  8  9  1  0
  8 25  1  0
  8 26  1  0
  9 27  1  0
  9 28  1  0
 10 15  1  0
 10 29  1  0
 10 30  1  0
 11 16  1  0
 11 31  1  0
 11 32  1  0
 12 16  2  0
 12 19  1  0
 13 20  1  0
 13 33  1  0
 13 34  1  0
 14 15  1  0
 15 35  1  0
 15 36  1  0
 16 37  1  0
 17 38  1  0
 17 39  1  0
 17 40  1  0
 18 41  1  0
 18 42  1  0
 18 43  1  0
 19 21  1  0
 19 44  1  0
 19 45  1  0
 20 21  1  0
 20 46  1  0
 20 47  1  0
 21 48  1  6
M  END
> <Name>
5881

> <PUBCHEM_COMPOUND_CID>
5881

> <Toxicity>
1

> <Data Set>
TestSet

$$$$
2995
  SciTegic12242523262D

 42 44  0  0  0  0            999 V2000
    4.8830    0.9050    0.0000 N   0  0
    3.1510   -2.0950    0.0000 N   0  0
    4.3830    3.0950    0.0000 C   0  0
    5.3830    3.0950    0.0000 C   0  0
    3.9820    1.3390    0.0000 C   0  0
    5.7840    1.3390    0.0000 C   0  0
    4.8830   -0.0950    0.0000 C   0  0
    3.7600    2.3140    0.0000 C   0  0
    6.0060    2.3140    0.0000 C   0  0
    4.0170   -0.5950    0.0000 C   0  0
    3.2300    0.6180    0.0000 C   0  0
    6.5360    0.6180    0.0000 C   0  0
    2.7690    2.6360    0.0000 C   0  0
    6.9970    2.6360    0.0000 C   0  0
    4.0170   -1.5950    0.0000 C   0  0
    2.2320    0.9180    0.0000 C   0  0
    7.5340    0.9180    0.0000 C   0  0
    2.0000    1.9330    0.0000 C   0  0
    7.7660    1.9330    0.0000 C   0  0
    3.1510   -3.0950    0.0000 C   0  0
    4.5210    3.7000    0.0000 H   0  0
    3.8240    3.3640    0.0000 H   0  0
    5.9420    3.3640    0.0000 H   0  0
    5.2450    3.7000    0.0000 H   0  0
    5.0950   -0.6780    0.0000 H   0  0
    5.4940    0.0120    0.0000 H   0  0
    3.8050   -0.0130    0.0000 H   0  0
    3.4060   -0.7030    0.0000 H   0  0
    3.3740    0.0160    0.0000 H   0  0
    6.3920    0.0160    0.0000 H   0  0
    4.2290   -2.1780    0.0000 H   0  0
    4.6280   -1.4880    0.0000 H   0  0
    2.6380    3.2420    0.0000 H   0  0
    7.1280    3.2420    0.0000 H   0  0
    1.7790    0.4940    0.0000 H   0  0
    7.9870    0.4940    0.0000 H   0  0
    1.4080    2.1180    0.0000 H   0  0
    8.3580    2.1180    0.0000 H   0  0
    2.6140   -1.7850    0.0000 H   0  0
    2.5310   -3.0950    0.0000 H   0  0
    3.1510   -3.7150    0.0000 H   0  0
    3.7710   -3.0950    0.0000 H   0  0
  1  5  1  0
  1  6  1  0
  1  7  1  0
  2 15  1  0
  2 20  1  0
  2 39  1  0
  3  4  1  0
  3  8  1  0
  3 21  1  0
  3 22  1  0
  4  9  1  0
  4 23  1  0
  4 24  1  0
  5  8  2  0
  5 11  1  0
  6  9  2  0
  6 12  1  0
  7 10  1  0
  7 25  1  0
  7 26  1  0
  8 13  1  0
  9 14  1  0
 10 15  1  0
 10 27  1  0
 10 28  1  0
 11 16  2  0
 11 29  1  0
 12 17  2  0
 12 30  1  0
 13 18  2  0
 13 33  1  0
 14 19  2  0
 14 34  1  0
 15 31  1  0
 15 32  1  0
 16 18  1  0
 16 35  1  0
 17 19  1  0
 17 36  1  0
 18 37  1  0
 19 38  1  0
 20 40  1  0
 20 41  1  0
 20 42  1  0
M  END
> <Name>
2995

> <PUBCHEM_COMPOUND_CID>
2995

> <Toxicity>
0

> <Data Set>
TrainingSet

$$$$
124087
  SciTegic12242523262D

 41 44  0  0  0  0            999 V2000
    2.0000    2.0420    0.0000 Cl  0  0
    5.8370   -2.2850    0.0000 N   0  0
    7.4910    0.4280    0.0000 N   0  0
    5.8370   -0.2850    0.0000 C   0  0
    5.8370    0.7150    0.0000 C   0  0
    4.9710   -0.7850    0.0000 C   0  0
    6.7030   -0.7850    0.0000 C   0  0
    4.9710   -1.7850    0.0000 C   0  0
    6.7030   -1.7850    0.0000 C   0  0
    4.9360    1.1490    0.0000 C   0  0
    6.7380    1.1490    0.0000 C   0  0
    5.3370    2.9050    0.0000 C   0  0
    4.7140    2.1240    0.0000 C   0  0
    6.3370    2.9050    0.0000 C   0  0
    6.9610    2.1240    0.0000 C   0  0
    4.1840    0.4280    0.0000 C   0  0
    3.7230    2.4460    0.0000 C   0  0
    7.9510    2.4460    0.0000 C   0  0
    3.1860    0.7280    0.0000 C   0  0
    2.9540    1.7430    0.0000 C   0  0
    8.7200    1.7430    0.0000 C   0  0
    8.4890    0.7280    0.0000 C   0  0
    4.7590   -0.2030    0.0000 H   0  0
    4.3610   -0.8930    0.0000 H   0  0
    7.3140   -0.8930    0.0000 H   0  0
    6.9160   -0.2030    0.0000 H   0  0
    4.3610   -1.6780    0.0000 H   0  0
    4.7590   -2.3680    0.0000 H   0  0
    6.9160   -2.3680    0.0000 H   0  0
    7.3140   -1.6780    0.0000 H   0  0
    5.4750    3.5100    0.0000 H   0  0
    4.7790    3.1740    0.0000 H   0  0
    6.8960    3.1740    0.0000 H   0  0
    6.2000    3.5100    0.0000 H   0  0
    5.8370   -2.9050    0.0000 H   0  0
    4.3290   -0.1740    0.0000 H   0  0
    3.5920    3.0520    0.0000 H   0  0
    8.0820    3.0520    0.0000 H   0  0
    2.7330    0.3040    0.0000 H   0  0
    9.3120    1.9280    0.0000 H   0  0
    8.9420    0.3040    0.0000 H   0  0
  1 20  1  0
  2  8  1  0
  2  9  1  0
  2 35  1  0
  3 11  2  0
  3 22  1  0
  4  5  2  0
  4  6  1  0
  4  7  1  0
  5 10  1  0
  5 11  1  0
  6  8  1  0
  6 23  1  0
  6 24  1  0
  7  9  1  0
  7 25  1  0
  7 26  1  0
  8 27  1  0
  8 28  1  0
  9 29  1  0
  9 30  1  0
 10 13  2  0
 10 16  1  0
 11 15  1  0
 12 13  1  0
 12 14  1  0
 12 31  1  0
 12 32  1  0
 13 17  1  0
 14 15  1  0
 14 33  1  0
 14 34  1  0
 15 18  2  0
 16 19  2  0
 16 36  1  0
 17 20  2  0
 17 37  1  0
 18 21  1  0
 18 38  1  0
 19 20  1  0
 19 39  1  0
 21 22  2  0
 21 40  1  0
 22 41  1  0
M  END
> <Name>
124087

> <PUBCHEM_COMPOUND_CID>
124087

> <Toxicity>
0

> <Data Set>
TestSet

$$$$
134821691
  SciTegic12242523262D

 53 56  0  0  0  0            999 V2000
    4.7320   -4.4910    0.0000 O   0  0
    5.5980    2.0090    0.0000 O   0  0
    7.3300    0.0090    0.0000 O   0  0
    3.8660   -2.9910    0.0000 N   0  0
    5.5980   -2.9910    0.0000 N   0  0
    5.5980    0.0090    0.0000 N   0  0
    6.4640   -2.4910    0.0000 N   0  0
    8.1960   -1.4910    0.0000 N   0  0
    3.3660    4.5480    0.0000 N   0  0
    3.0570    3.5970    0.0000 N   0  0
    4.6750    3.5970    0.0000 N   0  0
    3.0000   -4.4910    0.0000 C   0  0
    2.0000   -4.4910    0.0000 C   0  0
    2.5000   -5.3570    0.0000 C   0  0
    3.8660   -3.9910    0.0000 C   0  0
    4.7320   -2.4910    0.0000 C   0  0
    4.7320   -1.4910    0.0000 C   0  0
    5.5980   -0.9910    0.0000 C   0  0
    6.4640   -1.4910    0.0000 C   0  0
    4.7320    0.5090    0.0000 C   0  0
    4.7320    1.5090    0.0000 C   0  0
    3.8660    2.0090    0.0000 C   0  0
    3.8660    0.0090    0.0000 C   0  0
    7.3300   -0.9910    0.0000 C   0  0
    3.0000    1.5090    0.0000 C   0  0
    3.0000    0.5090    0.0000 C   0  0
    3.8660    3.0090    0.0000 C   0  0
    4.3660    4.5480    0.0000 C   0  0
    5.5980    3.0090    0.0000 C   0  0
    2.7780    5.3570    0.0000 C   0  0
    9.0620   -0.9910    0.0000 C   0  0
    2.8400   -3.8920    0.0000 H   0  0
    1.8920   -3.8800    0.0000 H   0  0
    1.4170   -4.7030    0.0000 H   0  0
    2.0250   -5.7560    0.0000 H   0  0
    2.9750   -5.7560    0.0000 H   0  0
    3.3290   -2.6810    0.0000 H   0  0
    4.1950   -1.1810    0.0000 H   0  0
    6.1350    0.3190    0.0000 H   0  0
    3.8660   -0.6110    0.0000 H   0  0
    2.4630    1.8190    0.0000 H   0  0
    2.4630    0.1990    0.0000 H   0  0
    8.1960   -2.1110    0.0000 H   0  0
    4.7300    5.0500    0.0000 H   0  0
    6.2180    3.0090    0.0000 H   0  0
    5.5980    3.6290    0.0000 H   0  0
    4.9780    3.0090    0.0000 H   0  0
    3.2800    5.7210    0.0000 H   0  0
    2.4140    5.8580    0.0000 H   0  0
    2.2770    4.9920    0.0000 H   0  0
    9.5990   -0.6810    0.0000 H   0  0
    9.3720   -1.5280    0.0000 H   0  0
    8.7520   -0.4540    0.0000 H   0  0
  1 15  2  0
  2 21  1  0
  2 29  1  0
  3 24  2  0
  4 15  1  0
  4 16  1  0
  4 37  1  0
  5  7  1  0
  5 16  2  0
  6 18  1  0
  6 20  1  0
  6 39  1  0
  7 19  2  0
  8 24  1  0
  8 31  1  0
  8 43  1  0
  9 10  1  0
  9 28  1  0
  9 30  1  0
 10 27  2  0
 11 27  1  0
 11 28  2  0
 12 13  1  0
 12 14  1  0
 12 15  1  0
 12 32  1  0
 13 14  1  0
 13 33  1  0
 13 34  1  0
 14 35  1  0
 14 36  1  0
 16 17  1  0
 17 18  2  0
 17 38  1  0
 18 19  1  0
 19 24  1  0
 20 21  2  0
 20 23  1  0
 21 22  1  0
 22 25  2  0
 22 27  1  0
 23 26  2  0
 23 40  1  0
 25 26  1  0
 25 41  1  0
 26 42  1  0
 28 44  1  0
 29 45  1  0
 29 46  1  0
 29 47  1  0
 30 48  1  0
 30 49  1  0
 30 50  1  0
 31 51  1  0
 31 52  1  0
 31 53  1  0
M  END
> <Name>
134821691

> <PUBCHEM_COMPOUND_CID>
134821691

> <Toxicity>
1

> <Data Set>
TrainingSet

$$$$
5311068
  SciTegic12242523262D

 31 32  0  0  1  0            999 V2000
    4.7030    2.0400    0.0000 N   0  0
    6.1810    1.3820    0.0000 N   0  0
    3.7320    0.5450    0.0000 C   0  0  1  0  0  0
    3.7320   -0.4550    0.0000 C   0  0
    2.8660   -0.9550    0.0000 C   0  0
    4.5980    1.0450    0.0000 C   0  0
    2.8660    1.0450    0.0000 C   0  0
    2.8660   -1.9550    0.0000 C   0  0
    4.5980   -0.9550    0.0000 C   0  0
    2.0000   -0.4550    0.0000 C   0  0
    3.7320   -2.4550    0.0000 C   0  0
    4.5980   -1.9550    0.0000 C   0  0
    5.5120    0.6390    0.0000 C   0  0
    2.0000   -2.4550    0.0000 C   0  0
    5.6810    2.2480    0.0000 C   0  0
    3.7320    1.1650    0.0000 H   0  0
    3.1760    1.5820    0.0000 H   0  0
    2.3290    1.3550    0.0000 H   0  0
    2.5560    0.5080    0.0000 H   0  0
    5.1350   -0.6450    0.0000 H   0  0
    2.3100    0.0820    0.0000 H   0  0
    1.4630   -0.1450    0.0000 H   0  0
    1.6900   -0.9920    0.0000 H   0  0
    3.7320   -3.0750    0.0000 H   0  0
    5.1350   -2.2650    0.0000 H   0  0
    4.2420    2.4550    0.0000 H   0  0
    5.6400    0.0320    0.0000 H   0  0
    1.6900   -1.9180    0.0000 H   0  0
    1.4630   -2.7650    0.0000 H   0  0
    2.3100   -2.9920    0.0000 H   0  0
    5.9330    2.8140    0.0000 H   0  0
  1  6  1  0
  1 15  1  0
  1 26  1  0
  2 13  1  0
  2 15  2  0
  3  4  1  0
  3  6  1  6
  3  7  1  0
  3 16  1  1
  4  5  1  0
  4  9  2  0
  5  8  2  0
  5 10  1  0
  6 13  2  0
  7 17  1  0
  7 18  1  0
  7 19  1  0
  8 11  1  0
  8 14  1  0
  9 12  1  0
  9 20  1  0
 10 21  1  0
 10 22  1  0
 10 23  1  0
 11 12  2  0
 11 24  1  0
 12 25  1  0
 13 27  1  0
 14 28  1  0
 14 29  1  0
 14 30  1  0
 15 31  1  0
M  END
> <Name>
5311068

> <PUBCHEM_COMPOUND_CID>
5311068

> <Toxicity>
0

> <Data Set>
TrainingSet

$$$$
2140
  SciTegic12242523262D

 29 29  0  0  0  0            999 V2000
    2.8660    0.5000    0.0000 I   0  0
    4.5980   -2.5000    0.0000 I   0  0
    6.3300    0.5000    0.0000 I   0  0
    6.3300   -2.5000    0.0000 O   0  0
    7.1960   -1.0000    0.0000 O   0  0
    6.3300    1.5000    0.0000 O   0  0
    3.7320   -3.0000    0.0000 O   0  0
    4.5980    1.5000    0.0000 N   0  0
    2.8660   -1.5000    0.0000 N   0  0
    4.5980    0.5000    0.0000 C   0  0
    3.7320   -1.0000    0.0000 C   0  0
    3.7320    0.0000    0.0000 C   0  0
    5.4640   -1.0000    0.0000 C   0  0
    4.5980   -1.5000    0.0000 C   0  0
    5.4640    0.0000    0.0000 C   0  0
    6.3300   -1.5000    0.0000 C   0  0
    5.4640    2.0000    0.0000 C   0  0
    2.8660   -2.5000    0.0000 C   0  0
    5.4640    3.0000    0.0000 C   0  0
    2.0000   -3.0000    0.0000 C   0  0
    4.0610    1.8100    0.0000 H   0  0
    2.3290   -1.1900    0.0000 H   0  0
    6.0840    3.0000    0.0000 H   0  0
    5.4640    3.6200    0.0000 H   0  0
    4.8440    3.0000    0.0000 H   0  0
    1.6900   -2.4630    0.0000 H   0  0
    1.4630   -3.3100    0.0000 H   0  0
    2.3100   -3.5370    0.0000 H   0  0
    6.8670   -2.8100    0.0000 H   0  0
  1 12  1  0
  2 14  1  0
  3 15  1  0
  4 16  1  0
  4 29  1  0
  5 16  2  0
  6 17  2  0
  7 18  2  0
  8 10  1  0
  8 17  1  0
  8 21  1  0
  9 11  1  0
  9 18  1  0
  9 22  1  0
 10 12  1  0
 10 15  2  0
 11 12  2  0
 11 14  1  0
 13 14  2  0
 13 15  1  0
 13 16  1  0
 17 19  1  0
 18 20  1  0
 19 23  1  0
 19 24  1  0
 19 25  1  0
 20 26  1  0
 20 27  1  0
 20 28  1  0
M  END
> <Name>
2140

> <PUBCHEM_COMPOUND_CID>
2140

> <Toxicity>
0

> <Data Set>
TrainingSet

$$$$
3033
  SciTegic12242523262D

 30 31  0  0  0  0            999 V2000
    5.4640   -1.5600    0.0000 Cl  0  0
    2.0000   -1.5600    0.0000 Cl  0  0
    4.5980    2.9400    0.0000 O   0  0
    2.8660    2.9400    0.0000 O   0  0
    3.7320   -0.5600    0.0000 N   0  0
    4.5980    0.9400    0.0000 C   0  0
    4.5980   -0.0600    0.0000 C   0  0
    3.7320    1.4400    0.0000 C   0  0
    3.7320   -1.5600    0.0000 C   0  0
    5.4640    1.4400    0.0000 C   0  0
    5.4640   -0.5600    0.0000 C   0  0
    6.3300    0.9400    0.0000 C   0  0
    6.3300   -0.0600    0.0000 C   0  0
    4.5980   -2.0600    0.0000 C   0  0
    2.8660   -2.0600    0.0000 C   0  0
    3.7320    2.4400    0.0000 C   0  0
    4.5980   -3.0600    0.0000 C   0  0
    2.8660   -3.0600    0.0000 C   0  0
    3.7320   -3.5600    0.0000 C   0  0
    3.1220    1.5480    0.0000 H   0  0
    3.5200    0.8570    0.0000 H   0  0
    3.1950   -0.2500    0.0000 H   0  0
    5.4640    2.0600    0.0000 H   0  0
    5.4640   -1.1800    0.0000 H   0  0
    6.8670    1.2500    0.0000 H   0  0
    6.8670   -0.3700    0.0000 H   0  0
    5.1350   -3.3700    0.0000 H   0  0
    2.3290   -3.3700    0.0000 H   0  0
    3.7320   -4.1800    0.0000 H   0  0
    4.5980    3.5600    0.0000 H   0  0
  1 14  1  0
  2 15  1  0
  3 16  1  0
  3 30  1  0
  4 16  2  0
  5  7  1  0
  5  9  1  0
  5 22  1  0
  6  7  2  0
  6  8  1  0
  6 10  1  0
  7 11  1  0
  8 16  1  0
  8 20  1  0
  8 21  1  0
  9 14  2  0
  9 15  1  0
 10 12  2  0
 10 23  1  0
 11 13  2  0
 11 24  1  0
 12 13  1  0
 12 25  1  0
 13 26  1  0
 14 17  1  0
 15 18  2  0
 17 19  2  0
 17 27  1  0
 18 19  1  0
 18 28  1  0
 19 29  1  0
M  END
> <Name>
3033

> <PUBCHEM_COMPOUND_CID>
3033

> <Toxicity>
0

> <Data Set>
TrainingSet

$$$$
18381
  SciTegic12242523262D

 47 50  0  0  1  0            999 V2000
    2.7900    2.4140    0.0000 Cl  0  0
    4.6700   -0.4950    0.0000 Cl  0  0
    9.8950    0.8020    0.0000 S   0  0
    7.2300   -1.2200    0.0000 O   0  0
    9.5350   -2.5110    0.0000 O   0  0
   11.1820   -1.9750    0.0000 O   0  0
    6.0020   -0.0170    0.0000 O   0  0
    4.8260    3.1000    0.0000 O   0  0
    8.9440   -0.5070    0.0000 N   0  0
    7.2300    1.2050    0.0000 N   0  0
    4.1180    2.3950    0.0000 N   0  0
    8.9440    0.4930    0.0000 C   0  0  1  0  0  0
   10.4820   -0.0070    0.0000 C   0  0
    9.8950   -0.8160    0.0000 C   0  0  2  0  0  0
    7.9350    0.4970    0.0000 C   0  0  1  0  0  0
    7.9350   -0.5110    0.0000 C   0  0
   11.2920    0.5800    0.0000 C   0  0
   11.2920   -0.5950    0.0000 C   0  0
   10.2040   -1.7670    0.0000 C   0  0
    6.2630    0.9480    0.0000 C   0  0
    5.5580    1.6570    0.0000 C   0  0
    4.5700    1.5030    0.0000 C   0  0
    5.7160    2.6440    0.0000 C   0  0
    3.7300    0.9600    0.0000 C   0  0
    6.6080    3.0970    0.0000 C   0  0
    2.8400    1.4160    0.0000 C   0  0
    3.7800   -0.0390    0.0000 C   0  0
    2.0000    0.8730    0.0000 C   0  0
    2.9400   -0.5820    0.0000 C   0  0
    2.0500   -0.1260    0.0000 C   0  0
    8.8120    1.3320    0.0000 H   0  0
    9.4560   -1.2550    0.0000 H   0  0
    8.1740    1.0690    0.0000 H   0  0
   11.6560    0.0790    0.0000 H   0  0
   11.7930    0.9450    0.0000 H   0  0
   10.9270    1.0820    0.0000 H   0  0
   10.9270   -1.0970    0.0000 H   0  0
   11.7930   -0.9600    0.0000 H   0  0
   11.6560   -0.0940    0.0000 H   0  0
    7.3920    1.8040    0.0000 H   0  0
    9.7260   -3.1000    0.0000 H   0  0
    6.8880    2.5440    0.0000 H   0  0
    7.1610    3.3770    0.0000 H   0  0
    6.3280    3.6500    0.0000 H   0  0
    1.4480    1.1550    0.0000 H   0  0
    2.9720   -1.2010    0.0000 H   0  0
    1.5300   -0.4630    0.0000 H   0  0
  1 26  1  0
  2 27  1  0
  3 12  1  0
  3 13  1  0
  4 16  2  0
  5 19  1  0
  5 41  1  0
  6 19  2  0
  7 20  2  0
  8 11  1  0
  8 23  1  0
  9 12  1  0
  9 14  1  0
  9 16  1  0
 15 10  1  1
 10 20  1  0
 10 40  1  0
 11 22  2  0
 12 15  1  0
 12 31  1  6
 13 14  1  0
 13 17  1  0
 13 18  1  0
 14 19  1  6
 14 32  1  1
 15 16  1  0
 15 33  1  6
 17 34  1  0
 17 35  1  0
 17 36  1  0
 18 37  1  0
 18 38  1  0
 18 39  1  0
 20 21  1  0
 21 22  1  0
 21 23  2  0
 22 24  1  0
 23 25  1  0
 24 26  2  0
 24 27  1  0
 25 42  1  0
 25 43  1  0
 25 44  1  0
 26 28  1  0
 27 29  2  0
 28 30  2  0
 28 45  1  0
 29 30  1  0
 29 46  1  0
 30 47  1  0
M  END
> <Name>
18381

> <PUBCHEM_COMPOUND_CID>
18381

> <Toxicity>
0

> <Data Set>
TestSet

$$$$
3042
  SciTegic12242523262D

 57 58  0  0  0  0            999 V2000
    5.5000   -0.2990    0.0000 O   0  0
    6.6740    0.6860    0.0000 O   0  0
    3.5000    1.4330    0.0000 N   0  0
    7.0000   -1.1650    0.0000 C   0  0
    7.7660   -0.5220    0.0000 C   0  0
    6.1340   -1.6650    0.0000 C   0  0
    7.8660   -1.6650    0.0000 C   0  0
    7.5920    0.4620    0.0000 C   0  0
    8.7060   -0.8640    0.0000 C   0  0
    6.1340   -2.6650    0.0000 C   0  0
    7.8660   -2.6650    0.0000 C   0  0
    8.3580    1.1050    0.0000 C   0  0
    9.4720   -0.2220    0.0000 C   0  0
    7.0000   -3.1650    0.0000 C   0  0
    9.2980    0.7630    0.0000 C   0  0
    6.5000   -0.2990    0.0000 C   0  0
    5.0000    0.5670    0.0000 C   0  0
    4.0000    0.5670    0.0000 C   0  0
    2.5000    1.4330    0.0000 C   0  0
    4.0000    2.2990    0.0000 C   0  0
    2.0000    2.2990    0.0000 C   0  0
    3.5000    3.1650    0.0000 C   0  0
    7.8740   -1.1330    0.0000 H   0  0
    5.9220   -1.0820    0.0000 H   0  0
    5.5230   -1.7730    0.0000 H   0  0
    8.4770   -1.7730    0.0000 H   0  0
    8.0780   -1.0820    0.0000 H   0  0
    7.2820    1.0000    0.0000 H   0  0
    7.0100    0.2500    0.0000 H   0  0
    8.3960   -1.4010    0.0000 H   0  0
    9.1810   -1.2630    0.0000 H   0  0
    5.5230   -2.5570    0.0000 H   0  0
    5.9220   -3.2480    0.0000 H   0  0
    8.0780   -3.2480    0.0000 H   0  0
    8.4770   -2.5570    0.0000 H   0  0
    8.6680    1.6420    0.0000 H   0  0
    7.8840    1.5040    0.0000 H   0  0
    9.7820   -0.7580    0.0000 H   0  0
   10.0540   -0.0100    0.0000 H   0  0
    6.6020   -3.6400    0.0000 H   0  0
    7.3980   -3.6400    0.0000 H   0  0
    9.9180    0.7630    0.0000 H   0  0
    9.4060    1.3740    0.0000 H   0  0
    5.5830    0.7790    0.0000 H   0  0
    4.8920    1.1780    0.0000 H   0  0
    3.4170    0.3550    0.0000 H   0  0
    4.1080   -0.0440    0.0000 H   0  0
    1.9170    1.2210    0.0000 H   0  0
    2.6080    0.8220    0.0000 H   0  0
    4.4750    1.9000    0.0000 H   0  0
    4.4750    2.6980    0.0000 H   0  0
    2.5370    2.6090    0.0000 H   0  0
    1.6900    2.8360    0.0000 H   0  0
    1.4630    1.9890    0.0000 H   0  0
    4.0370    3.4750    0.0000 H   0  0
    3.1900    3.7020    0.0000 H   0  0
    2.9630    2.8550    0.0000 H   0  0
  1 16  1  0
  1 17  1  0
  2 16  2  0
  3 18  1  0
  3 19  1  0
  3 20  1  0
  4  5  1  0
  4  6  1  0
  4  7  1  0
  4 16  1  0
  5  8  1  0
  5  9  1  0
  5 23  1  0
  6 10  1  0
  6 24  1  0
  6 25  1  0
  7 11  1  0
  7 26  1  0
  7 27  1  0
  8 12  1  0
  8 28  1  0
  8 29  1  0
  9 13  1  0
  9 30  1  0
  9 31  1  0
 10 14  1  0
 10 32  1  0
 10 33  1  0
 11 14  1  0
 11 34  1  0
 11 35  1  0
 12 15  1  0
 12 36  1  0
 12 37  1  0
 13 15  1  0
 13 38  1  0
 13 39  1  0
 14 40  1  0
 14 41  1  0
 15 42  1  0
 15 43  1  0
 17 18  1  0
 17 44  1  0
 17 45  1  0
 18 46  1  0
 18 47  1  0
 19 21  1  0
 19 48  1  0
 19 49  1  0
 20 22  1  0
 20 50  1  0
 20 51  1  0
 21 52  1  0
 21 53  1  0
 21 54  1  0
 22 55  1  0
 22 56  1  0
 22 57  1  0
M  END
> <Name>
3042

> <PUBCHEM_COMPOUND_CID>
3042

> <Toxicity>
1

> <Data Set>
TrainingSet

$$$$
7029
  SciTegic12242523262D

 34 34  0  0  1  0            999 V2000
    2.0000    0.5000    0.0000 O   0  0
    3.7320    1.5000    0.0000 N   0  0
    3.7320    0.5000    0.0000 C   0  0
    4.5980    2.0000    0.0000 C   0  0
    2.8660    2.0000    0.0000 C   0  0
    2.8660    0.0000    0.0000 C   0  0
    4.5980    0.0000    0.0000 C   0  0
    4.5980    3.0000    0.0000 C   0  0
    2.8660    3.0000    0.0000 C   0  0
    2.8660   -1.0000    0.0000 C   0  0
    2.0000   -1.5000    0.0000 C   0  0
    3.7320   -1.5000    0.0000 C   0  0
    2.0000   -2.5000    0.0000 C   0  0
    3.7320   -2.5000    0.0000 C   0  0
    2.8660   -3.0000    0.0000 C   0  0
    4.2690    0.8100    0.0000 H   0  0
    4.8100    1.4170    0.0000 H   0  0
    5.2090    2.1080    0.0000 H   0  0
    2.2550    2.1080    0.0000 H   0  0
    2.6540    1.4170    0.0000 H   0  0
    4.2880   -0.5370    0.0000 H   0  0
    5.1350   -0.3100    0.0000 H   0  0
    4.9080    0.5370    0.0000 H   0  0
    5.2180    3.0000    0.0000 H   0  0
    4.5980    3.6200    0.0000 H   0  0
    3.9780    3.0000    0.0000 H   0  0
    3.4860    3.0000    0.0000 H   0  0
    2.8660    3.6200    0.0000 H   0  0
    2.2460    3.0000    0.0000 H   0  0
    1.4630   -1.1900    0.0000 H   0  0
    4.2690   -1.1900    0.0000 H   0  0
    1.4630   -2.8100    0.0000 H   0  0
    4.2690   -2.8100    0.0000 H   0  0
    2.8660   -3.6200    0.0000 H   0  0
  1  6  2  0
  2  3  1  0
  2  4  1  0
  2  5  1  0
  3  6  1  0
  3  7  1  0
  3 16  1  0
  4  8  1  0
  4 17  1  0
  4 18  1  0
  5  9  1  0
  5 19  1  0
  5 20  1  0
  6 10  1  0
  7 21  1  0
  7 22  1  0
  7 23  1  0
  8 24  1  0
  8 25  1  0
  8 26  1  0
  9 27  1  0
  9 28  1  0
  9 29  1  0
 10 11  2  0
 10 12  1  0
 11 13  1  0
 11 30  1  0
 12 14  2  0
 12 31  1  0
 13 15  2  0
 13 32  1  0
 14 15  1  0
 14 33  1  0
 15 34  1  0
M  END
> <Name>
7029

> <PUBCHEM_COMPOUND_CID>
7029

> <Toxicity>
1

> <Data Set>
TrainingSet

$$$$
2724385
  SciTegic12242523262D

119126  0  0  1  0            999 V2000
   18.3180   -1.3890    0.0000 O   0  0
   17.4390    2.1080    0.0000 O   0  0
   12.9290   -2.4620    0.0000 O   0  0
   19.5590    3.4890    0.0000 O   0  0
   12.0630   -0.9620    0.0000 O   0  0
   21.3190    3.7720    0.0000 O   0  0
    9.4650   -2.4620    0.0000 O   0  0
    9.4650   -0.4620    0.0000 O   0  0
    7.7330   -0.4620    0.0000 O   0  0
    6.0010   -2.4620    0.0000 O   0  0
    7.7330   -3.4620    0.0000 O   0  0
    4.2690   -2.4620    0.0000 O   0  0
    4.2690    0.5380    0.0000 O   0  0
    2.5370   -0.4620    0.0000 O   0  0
   18.3140   -0.3890    0.0000 C   0  0  1  0  0  0
   17.4500   -0.8920    0.0000 C   0  0  1  0  0  0
   16.5820   -0.3950    0.0000 C   0  0  1  0  0  0
   18.3100    0.6110    0.0000 C   0  0  2  0  0  0
   15.6740   -0.9060    0.0000 C   0  0  2  0  0  0
   15.6700   -1.9470    0.0000 C   0  0  2  0  0  0
   17.4430    1.1080    0.0000 C   0  0  1  0  0  0
   16.5780    0.6050    0.0000 C   0  0
   19.2560    0.9200    0.0000 C   0  0  2  0  0  0
   19.2620   -0.6900    0.0000 C   0  0
   17.4700   -1.9340    0.0000 C   0  0
   16.5740   -2.4650    0.0000 C   0  0
   19.8420    0.1170    0.0000 C   0  0
   14.7450   -0.3450    0.0000 C   0  0
   18.3070    1.6110    0.0000 C   0  0
   14.7370   -2.5010    0.0000 C   0  0
   15.6780    0.0940    0.0000 C   0  0
   13.7990   -0.8770    0.0000 C   0  0
   13.7950   -1.9620    0.0000 C   0  0  2  0  0  0
   19.5630    1.8710    0.0000 C   0  0
   18.9730    2.6790    0.0000 C   0  0
   20.5130    2.1820    0.0000 C   0  0
   20.5110    3.1820    0.0000 C   0  0
   12.0630   -1.9620    0.0000 C   0  0  2  0  0  0
   11.1970   -2.4620    0.0000 C   0  0
   10.3310   -1.9620    0.0000 C   0  0  1  0  0  0
   11.1970   -0.4620    0.0000 C   0  0  1  0  0  0
   10.3310   -0.9620    0.0000 C   0  0  1  0  0  0
   11.1970    0.5380    0.0000 C   0  0
    8.5990   -0.9620    0.0000 C   0  0  2  0  0  0
    8.5990   -1.9620    0.0000 C   0  0
    7.7330   -2.4620    0.0000 C   0  0  1  0  0  0
    6.8670   -0.9620    0.0000 C   0  0  1  0  0  0
    6.8670   -1.9620    0.0000 C   0  0  1  0  0  0
    6.0010   -0.4620    0.0000 C   0  0
    5.1350   -1.9620    0.0000 C   0  0  2  0  0  0
    5.1350   -0.9620    0.0000 C   0  0
    4.2690   -0.4620    0.0000 C   0  0  1  0  0  0
    3.4030   -1.9620    0.0000 C   0  0  1  0  0  0
    3.4030   -0.9620    0.0000 C   0  0  1  0  0  0
    2.5370   -2.4620    0.0000 C   0  0
   18.1910   -1.3090    0.0000 H   0  0
   17.3170    0.0320    0.0000 H   0  0
   15.6770   -2.7970    0.0000 H   0  0
   16.9040    1.4160    0.0000 H   0  0
   16.3640    1.1860    0.0000 H   0  0
   15.9680    0.4940    0.0000 H   0  0
   19.8680    1.0180    0.0000 H   0  0
   19.0130   -1.2580    0.0000 H   0  0
   19.8000   -0.9970    0.0000 H   0  0
   17.6910   -2.5130    0.0000 H   0  0
   18.0790   -1.8160    0.0000 H   0  0
   16.1790   -2.9420    0.0000 H   0  0
   16.9770   -2.9360    0.0000 H   0  0
   20.3050   -0.2960    0.0000 H   0  0
   20.3020    0.5340    0.0000 H   0  0
   15.1520    0.1230    0.0000 H   0  0
   14.3540    0.1350    0.0000 H   0  0
   18.9270    1.6140    0.0000 H   0  0
   18.3040    2.2310    0.0000 H   0  0
   17.6870    1.6090    0.0000 H   0  0
   14.3420   -2.9780    0.0000 H   0  0
   15.1400   -2.9720    0.0000 H   0  0
   16.2980    0.0920    0.0000 H   0  0
   15.6800    0.7140    0.0000 H   0  0
   15.0580    0.0970    0.0000 H   0  0
   13.5930   -0.2920    0.0000 H   0  0
   13.1880   -0.9810    0.0000 H   0  0
   13.2590   -1.6510    0.0000 H   0  0
   18.8560   -1.6970    0.0000 H   0  0
   16.9010    2.4160    0.0000 H   0  0
   18.5110    3.0930    0.0000 H   0  0
   18.5130    2.2630    0.0000 H   0  0
   21.0150    1.8190    0.0000 H   0  0
   12.0630   -2.5820    0.0000 H   0  0
   10.7990   -2.9370    0.0000 H   0  0
   11.5960   -2.9370    0.0000 H   0  0
   10.3310   -2.5820    0.0000 H   0  0
   11.7340   -0.1520    0.0000 H   0  0
    9.7940   -1.2720    0.0000 H   0  0
   11.8170    0.5380    0.0000 H   0  0
   11.1970    1.1580    0.0000 H   0  0
   10.5770    0.5380    0.0000 H   0  0
    9.4650   -3.0820    0.0000 H   0  0
    8.5990   -0.3420    0.0000 H   0  0
    8.8110   -2.5440    0.0000 H   0  0
    9.2100   -1.8540    0.0000 H   0  0
    8.2700   -2.7720    0.0000 H   0  0
    6.8670   -0.3420    0.0000 H   0  0
    6.3300   -1.6520    0.0000 H   0  0
    6.3110    0.0750    0.0000 H   0  0
    5.4640   -0.1520    0.0000 H   0  0
    5.6910   -0.9990    0.0000 H   0  0
    8.2700   -3.7720    0.0000 H   0  0
    5.1350   -2.5820    0.0000 H   0  0
    5.7460   -1.0700    0.0000 H   0  0
    5.3470   -0.3790    0.0000 H   0  0
    4.8060   -0.1520    0.0000 H   0  0
    3.4030   -2.5820    0.0000 H   0  0
    3.4030   -0.3420    0.0000 H   0  0
    2.2270   -1.9250    0.0000 H   0  0
    2.0000   -2.7720    0.0000 H   0  0
    2.8470   -2.9990    0.0000 H   0  0
    3.7320    0.8480    0.0000 H   0  0
    2.0000   -0.7720    0.0000 H   0  0
 15  1  1  1
  1 84  1  0
 21  2  1  1
  2 85  1  0
 33  3  1  1
 38  3  1  1
  4 35  1  0
  4 37  1  0
  5 38  1  0
  5 41  1  0
  6 37  2  0
 40  7  1  6
  7 98  1  0
 42  8  1  6
 44  8  1  1
  9 44  1  0
  9 47  1  0
 48 10  1  6
 50 10  1  6
 46 11  1  6
 11108  1  0
 12 50  1  0
 12 53  1  0
 52 13  1  1
 13118  1  0
 54 14  1  1
 14119  1  0
 15 16  1  0
 15 18  1  0
 15 24  1  0
 16 17  1  0
 16 25  1  0
 16 56  1  1
 17 19  1  0
 17 22  1  0
 17 57  1  6
 18 21  1  0
 18 23  1  0
 18 29  1  1
 19 20  1  0
 19 28  1  0
 19 31  1  1
 20 26  1  0
 20 30  1  0
 20 58  1  1
 21 22  1  0
 21 59  1  6
 22 60  1  0
 22 61  1  0
 23 27  1  0
 23 34  1  1
 23 62  1  6
 24 27  1  0
 24 63  1  0
 24 64  1  0
 25 26  1  0
 25 65  1  0
 25 66  1  0
 26 67  1  0
 26 68  1  0
 27 69  1  0
 27 70  1  0
 28 32  1  0
 28 71  1  0
 28 72  1  0
 29 73  1  0
 29 74  1  0
 29 75  1  0
 30 33  1  0
 30 76  1  0
 30 77  1  0
 31 78  1  0
 31 79  1  0
 31 80  1  0
 32 33  1  0
 32 81  1  0
 32 82  1  0
 33 83  1  6
 34 35  1  0
 34 36  2  0
 35 86  1  0
 35 87  1  0
 36 37  1  0
 36 88  1  0
 38 39  1  0
 38 89  1  6
 39 40  1  0
 39 90  1  0
 39 91  1  0
 40 42  1  0
 40 92  1  1
 41 42  1  0
 41 43  1  1
 41 93  1  6
 42 94  1  1
 43 95  1  0
 43 96  1  0
 43 97  1  0
 44 45  1  0
 44 99  1  6
 45 46  1  0
 45100  1  0
 45101  1  0
 46 48  1  0
 46102  1  1
 47 48  1  0
 47 49  1  1
 47103  1  6
 48104  1  1
 49105  1  0
 49106  1  0
 49107  1  0
 50 51  1  0
 50109  1  1
 51 52  1  0
 51110  1  0
 51111  1  0
 52 54  1  0
 52112  1  6
 53 54  1  0
 53 55  1  6
 53113  1  1
 54114  1  6
 55115  1  0
 55116  1  0
 55117  1  0
M  END
> <Name>
2724385

> <PUBCHEM_COMPOUND_CID>
2724385

> <Toxicity>
0

> <Data Set>
TrainingSet

$$$$
637568
  SciTegic12242523262D

 18 17  0  0  0  0            999 V2000
    2.8660    0.2500    0.0000 O   0  0
    7.1960   -0.2500    0.0000 O   0  0
    3.7320   -1.2500    0.0000 O   0  0
    6.3300    1.2500    0.0000 O   0  0
    4.5980    0.2500    0.0000 C   0  0
    5.4640   -0.2500    0.0000 C   0  0
    3.7320   -0.2500    0.0000 C   0  0
    6.3300    0.2500    0.0000 C   0  0
    2.0000   -0.2500    0.0000 C   0  0
    8.0620    0.2500    0.0000 C   0  0
    4.5980    0.8700    0.0000 H   0  0
    5.4640   -0.8700    0.0000 H   0  0
    1.6900    0.2870    0.0000 H   0  0
    1.4630   -0.5600    0.0000 H   0  0
    2.3100   -0.7870    0.0000 H   0  0
    8.3720   -0.2870    0.0000 H   0  0
    8.5990    0.5600    0.0000 H   0  0
    7.7520    0.7870    0.0000 H   0  0
  1  7  1  0
  1  9  1  0
  2  8  1  0
  2 10  1  0
  3  7  2  0
  4  8  2  0
  5  6  2  0
  5  7  1  0
  5 11  1  0
  6  8  1  0
  6 12  1  0
  9 13  1  0
  9 14  1  0
  9 15  1  0
 10 16  1  0
 10 17  1  0
 10 18  1  0
M  END
> <Name>
637568

> <PUBCHEM_COMPOUND_CID>
637568

> <Toxicity>
0

> <Data Set>
TrainingSet

$$$$
679
  SciTegic12242523262D

 10  9  0  0  0  0            999 V2000
    2.8660    0.2500    0.0000 S   0  0
    3.7320    0.7500    0.0000 O   0  0
    2.0000    0.7500    0.0000 C   0  0
    2.8660   -0.7500    0.0000 C   0  0
    2.3100    1.2870    0.0000 H   0  0
    1.4630    1.0600    0.0000 H   0  0
    1.6900    0.2130    0.0000 H   0  0
    2.2460   -0.7500    0.0000 H   0  0
    2.8660   -1.3700    0.0000 H   0  0
    3.4860   -0.7500    0.0000 H   0  0
  1  2  2  0
  1  3  1  0
  1  4  1  0
  3  5  1  0
  3  6  1  0
  3  7  1  0
  4  8  1  0
  4  9  1  0
  4 10  1  0
M  END
> <Name>
679

> <PUBCHEM_COMPOUND_CID>
679

> <Toxicity>
1

> <Data Set>
TrainingSet

$$$$
3100
  SciTegic12242523262D

 40 41  0  0  0  0            999 V2000
    3.7320    0.2500    0.0000 O   0  0
    2.8660    2.7500    0.0000 N   0  0
    4.5980   -0.2500    0.0000 C   0  0
    4.5980   -1.2500    0.0000 C   0  0
    5.4640    0.2500    0.0000 C   0  0
    3.7320    1.2500    0.0000 C   0  0
    2.8660    1.7500    0.0000 C   0  0
    3.7320   -1.7500    0.0000 C   0  0
    6.3300   -0.2500    0.0000 C   0  0
    5.4640   -1.7500    0.0000 C   0  0
    5.4640    1.2500    0.0000 C   0  0
    2.0000    3.2500    0.0000 C   0  0
    3.7320    3.2500    0.0000 C   0  0
    3.7320   -2.7500    0.0000 C   0  0
    7.1960    0.2500    0.0000 C   0  0
    5.4640   -2.7500    0.0000 C   0  0
    6.3300    1.7500    0.0000 C   0  0
    4.5980   -3.2500    0.0000 C   0  0
    7.1960    1.2500    0.0000 C   0  0
    4.5980    0.3700    0.0000 H   0  0
    4.3430    1.1420    0.0000 H   0  0
    3.9440    1.8330    0.0000 H   0  0
    2.2550    1.8580    0.0000 H   0  0
    2.6540    1.1670    0.0000 H   0  0
    3.1950   -1.4400    0.0000 H   0  0
    6.3300   -0.8700    0.0000 H   0  0
    6.0010   -1.4400    0.0000 H   0  0
    4.9270    1.5600    0.0000 H   0  0
    2.3100    3.7870    0.0000 H   0  0
    1.4630    3.5600    0.0000 H   0  0
    1.6900    2.7130    0.0000 H   0  0
    4.0420    2.7130    0.0000 H   0  0
    4.2690    3.5600    0.0000 H   0  0
    3.4220    3.7870    0.0000 H   0  0
    3.1950   -3.0600    0.0000 H   0  0
    7.7330   -0.0600    0.0000 H   0  0
    6.0010   -3.0600    0.0000 H   0  0
    6.3300    2.3700    0.0000 H   0  0
    4.5980   -3.8700    0.0000 H   0  0
    7.7330    1.5600    0.0000 H   0  0
  1  3  1  0
  1  6  1  0
  2  7  1  0
  2 12  1  0
  2 13  1  0
  3  4  1  0
  3  5  1  0
  3 20  1  0
  4  8  2  0
  4 10  1  0
  5  9  2  0
  5 11  1  0
  6  7  1  0
  6 21  1  0
  6 22  1  0
  7 23  1  0
  7 24  1  0
  8 14  1  0
  8 25  1  0
  9 15  1  0
  9 26  1  0
 10 16  2  0
 10 27  1  0
 11 17  2  0
 11 28  1  0
 12 29  1  0
 12 30  1  0
 12 31  1  0
 13 32  1  0
 13 33  1  0
 13 34  1  0
 14 18  2  0
 14 35  1  0
 15 19  2  0
 15 36  1  0
 16 18  1  0
 16 37  1  0
 17 19  1  0
 17 38  1  0
 18 39  1  0
 19 40  1  0
M  END
> <Name>
3100

> <PUBCHEM_COMPOUND_CID>
3100

> <Toxicity>
0

> <Data Set>
TrainingSet

$$$$
3105
  SciTegic12242523262D

 54 54  0  0  1  0            999 V2000
    6.3300    1.5000    0.0000 O   0  0
    4.5980    0.5000    0.0000 O   0  0
    8.9280   -1.0000    0.0000 O   0  0
    8.0620    1.5000    0.0000 O   0  0
    3.7320   -1.0000    0.0000 O   0  0
    8.9280   -3.0000    0.0000 N   0  0
    7.1960    3.0000    0.0000 C   0  0
    2.8660    0.5000    0.0000 C   0  0
    7.1960   -1.0000    0.0000 C   0  0
    8.0620   -1.5000    0.0000 C   0  0
    7.1960    4.0000    0.0000 C   0  0
    8.1960    3.0000    0.0000 C   0  0
    6.1960    3.0000    0.0000 C   0  0
    7.1960    2.0000    0.0000 C   0  0
    2.0000    1.0000    0.0000 C   0  0
    2.3660   -0.3660    0.0000 C   0  0
    3.3660    1.3660    0.0000 C   0  0
    3.7320    0.0000    0.0000 C   0  0
    6.3300    0.5000    0.0000 C   0  0
    5.4640    0.0000    0.0000 C   0  0
    7.1960    0.0000    0.0000 C   0  0
    8.0620   -2.5000    0.0000 C   0  0
    6.3300   -1.5000    0.0000 C   0  0
    5.4640   -1.0000    0.0000 C   0  0
    8.9280   -4.0000    0.0000 C   0  0
    8.0620   -0.8800    0.0000 H   0  0
    7.8160    4.0000    0.0000 H   0  0
    7.1960    4.6200    0.0000 H   0  0
    6.5760    4.0000    0.0000 H   0  0
    8.1960    2.3800    0.0000 H   0  0
    8.8160    3.0000    0.0000 H   0  0
    8.1960    3.6200    0.0000 H   0  0
    6.1960    3.6200    0.0000 H   0  0
    5.5760    3.0000    0.0000 H   0  0
    6.1960    2.3800    0.0000 H   0  0
    2.3100    1.5370    0.0000 H   0  0
    1.4630    1.3100    0.0000 H   0  0
    1.6900    0.4630    0.0000 H   0  0
    1.8290   -0.0560    0.0000 H   0  0
    2.0560   -0.9030    0.0000 H   0  0
    2.9030   -0.6760    0.0000 H   0  0
    3.9030    1.0560    0.0000 H   0  0
    3.6760    1.9030    0.0000 H   0  0
    2.8290    1.6760    0.0000 H   0  0
    7.7330    0.3100    0.0000 H   0  0
    7.4520   -2.3920    0.0000 H   0  0
    7.8500   -3.0830    0.0000 H   0  0
    6.3300   -2.1200    0.0000 H   0  0
    4.9270   -1.3100    0.0000 H   0  0
    9.4650   -2.6900    0.0000 H   0  0
    9.4650   -1.3100    0.0000 H   0  0
    8.3080   -4.0000    0.0000 H   0  0
    8.9280   -4.6200    0.0000 H   0  0
    9.5480   -4.0000    0.0000 H   0  0
  1 14  1  0
  1 19  1  0
  2 18  1  0
  2 20  1  0
  3 10  1  0
  3 51  1  0
  4 14  2  0
  5 18  2  0
  6 22  1  0
  6 25  1  0
  6 50  1  0
  7 11  1  0
  7 12  1  0
  7 13  1  0
  7 14  1  0
  8 15  1  0
  8 16  1  0
  8 17  1  0
  8 18  1  0
  9 10  1  0
  9 21  2  0
  9 23  1  0
 10 22  1  0
 10 26  1  0
 11 27  1  0
 11 28  1  0
 11 29  1  0
 12 30  1  0
 12 31  1  0
 12 32  1  0
 13 33  1  0
 13 34  1  0
 13 35  1  0
 15 36  1  0
 15 37  1  0
 15 38  1  0
 16 39  1  0
 16 40  1  0
 16 41  1  0
 17 42  1  0
 17 43  1  0
 17 44  1  0
 19 20  2  0
 19 21  1  0
 20 24  1  0
 21 45  1  0
 22 46  1  0
 22 47  1  0
 23 24  2  0
 23 48  1  0
 24 49  1  0
 25 52  1  0
 25 53  1  0
 25 54  1  0
M  END
> <Name>
3105

> <PUBCHEM_COMPOUND_CID>
3105

> <Toxicity>
0

> <Data Set>
TestSet

$$$$
3114
  SciTegic12242523262D

 54 55  0  0  1  0            999 V2000
    2.9030   -0.8660    0.0000 O   0  0
    6.9030   -0.8660    0.0000 N   0  0
    5.2690    1.5000    0.0000 N   0  0
    2.5370    0.5000    0.0000 N   0  0
    4.4030    0.0000    0.0000 C   0  0
    5.4030    0.0000    0.0000 C   0  0
    5.9030   -0.8660    0.0000 C   0  0
    7.4030   -1.7320    0.0000 C   0  0
    7.4030    0.0000    0.0000 C   0  0
    4.4030   -1.0000    0.0000 C   0  0
    4.4030    1.0000    0.0000 C   0  0
    3.4030    0.0000    0.0000 C   0  0
    8.4030   -1.7320    0.0000 C   0  0
    6.9030   -2.5980    0.0000 C   0  0
    8.4030    0.0000    0.0000 C   0  0
    6.9030    0.8660    0.0000 C   0  0
    3.5370   -1.5000    0.0000 C   0  0
    5.2690   -1.5000    0.0000 C   0  0
    3.5370    1.5000    0.0000 C   0  0
    3.5370   -2.5000    0.0000 C   0  0
    5.2690   -2.5000    0.0000 C   0  0
    3.5370    2.5000    0.0000 C   0  0
    4.4030   -3.0000    0.0000 C   0  0
    5.2690    2.5000    0.0000 C   0  0
    4.4030    3.0000    0.0000 C   0  0
    5.9860    0.2120    0.0000 H   0  0
    5.2950    0.6110    0.0000 H   0  0
    5.3200   -1.0780    0.0000 H   0  0
    6.0110   -1.4770    0.0000 H   0  0
    7.7130   -1.1950    0.0000 H   0  0
    7.7130   -0.5370    0.0000 H   0  0
    8.4030   -2.3520    0.0000 H   0  0
    9.0230   -1.7320    0.0000 H   0  0
    8.4030   -1.1120    0.0000 H   0  0
    6.3660   -2.2880    0.0000 H   0  0
    6.5930   -3.1350    0.0000 H   0  0
    7.4400   -2.9080    0.0000 H   0  0
    8.4030   -0.6200    0.0000 H   0  0
    9.0230    0.0000    0.0000 H   0  0
    8.4030    0.6200    0.0000 H   0  0
    7.4400    1.1760    0.0000 H   0  0
    6.5930    1.4030    0.0000 H   0  0
    6.3660    0.5560    0.0000 H   0  0
    3.0000   -1.1900    0.0000 H   0  0
    5.8060   -1.1900    0.0000 H   0  0
    3.0000    1.1900    0.0000 H   0  0
    2.0000    0.1900    0.0000 H   0  0
    2.5370    1.1200    0.0000 H   0  0
    3.0000   -2.8100    0.0000 H   0  0
    5.8060   -2.8100    0.0000 H   0  0
    3.0000    2.8100    0.0000 H   0  0
    4.4030   -3.6200    0.0000 H   0  0
    5.8060    2.8100    0.0000 H   0  0
    4.4030    3.6200    0.0000 H   0  0
  1 12  2  0
  2  7  1  0
  2  8  1  0
  2  9  1  0
  3 11  1  0
  3 24  2  0
  4 12  1  0
  4 47  1  0
  4 48  1  0
  5  6  1  0
  5 10  1  0
  5 11  1  0
  5 12  1  0
  6  7  1  0
  6 26  1  0
  6 27  1  0
  7 28  1  0
  7 29  1  0
  8 13  1  0
  8 14  1  0
  8 30  1  0
  9 15  1  0
  9 16  1  0
  9 31  1  0
 10 17  2  0
 10 18  1  0
 11 19  2  0
 13 32  1  0
 13 33  1  0
 13 34  1  0
 14 35  1  0
 14 36  1  0
 14 37  1  0
 15 38  1  0
 15 39  1  0
 15 40  1  0
 16 41  1  0
 16 42  1  0
 16 43  1  0
 17 20  1  0
 17 44  1  0
 18 21  2  0
 18 45  1  0
 19 22  1  0
 19 46  1  0
 20 23  2  0
 20 49  1  0
 21 23  1  0
 21 50  1  0
 22 25  2  0
 22 51  1  0
 23 52  1  0
 24 25  1  0
 24 53  1  0
 25 54  1  0
M  END
> <Name>
3114

> <PUBCHEM_COMPOUND_CID>
3114

> <Toxicity>
0

> <Data Set>
TrainingSet

$$$$
3117
  SciTegic12242523262D

 36 35  0  0  0  0            999 V2000
    6.3300    0.2500    0.0000 S   0  0
    5.4640   -0.2500    0.0000 S   0  0
    7.1960   -1.2500    0.0000 S   0  0
    4.5980    1.2500    0.0000 S   0  0
    8.0620    0.2500    0.0000 N   0  0
    3.7320   -0.2500    0.0000 N   0  0
    8.9280   -0.2500    0.0000 C   0  0
    8.0620    1.2500    0.0000 C   0  0
    2.8660    0.2500    0.0000 C   0  0
    3.7320   -1.2500    0.0000 C   0  0
    9.7940    0.2500    0.0000 C   0  0
    8.9280    1.7500    0.0000 C   0  0
    2.0000   -0.2500    0.0000 C   0  0
    2.8660   -1.7500    0.0000 C   0  0
    7.1960   -0.2500    0.0000 C   0  0
    4.5980    0.2500    0.0000 C   0  0
    8.5300   -0.7250    0.0000 H   0  0
    9.3270   -0.7250    0.0000 H   0  0
    7.8500    1.8330    0.0000 H   0  0
    7.4520    1.1420    0.0000 H   0  0
    3.2650    0.7250    0.0000 H   0  0
    2.4680    0.7250    0.0000 H   0  0
    3.9440   -1.8330    0.0000 H   0  0
    4.3430   -1.1420    0.0000 H   0  0
   10.1040   -0.2870    0.0000 H   0  0
   10.3310    0.5600    0.0000 H   0  0
    9.4840    0.7870    0.0000 H   0  0
    9.2380    1.2130    0.0000 H   0  0
    9.4650    2.0600    0.0000 H   0  0
    8.6180    2.2870    0.0000 H   0  0
    1.6900    0.2870    0.0000 H   0  0
    1.4630   -0.5600    0.0000 H   0  0
    2.3100   -0.7870    0.0000 H   0  0
    2.5560   -1.2130    0.0000 H   0  0
    2.3290   -2.0600    0.0000 H   0  0
    3.1760   -2.2870    0.0000 H   0  0
  1  2  1  0
  1 15  1  0
  2 16  1  0
  3 15  2  0
  4 16  2  0
  5  7  1  0
  5  8  1  0
  5 15  1  0
  6  9  1  0
  6 10  1  0
  6 16  1  0
  7 11  1  0
  7 17  1  0
  7 18  1  0
  8 12  1  0
  8 19  1  0
  8 20  1  0
  9 13  1  0
  9 21  1  0
  9 22  1  0
 10 14  1  0
 10 23  1  0
 10 24  1  0
 11 25  1  0
 11 26  1  0
 11 27  1  0
 12 28  1  0
 12 29  1  0
 12 30  1  0
 13 31  1  0
 13 32  1  0
 13 33  1  0
 14 34  1  0
 14 35  1  0
 14 36  1  0
M  END
> <Name>
3117

> <PUBCHEM_COMPOUND_CID>
3117

> <Toxicity>
1

> <Data Set>
TrainingSet

$$$$
36811
  SciTegic12242523262D

 45 46  0  0  1  0            999 V2000
    4.2690    4.6550    0.0000 O   0  0
   11.1970   -4.3450    0.0000 O   0  0
    2.5370    3.6550    0.0000 O   0  0
    6.8670    0.1550    0.0000 N   0  0
    6.8670   -0.8450    0.0000 C   0  0
    7.7330   -1.3450    0.0000 C   0  0
    7.7330   -2.3450    0.0000 C   0  0
    6.0010    0.6550    0.0000 C   0  0
    6.0010   -1.3450    0.0000 C   0  0
    6.0010    1.6550    0.0000 C   0  0
    8.5990   -2.8450    0.0000 C   0  0
    5.1350    2.1550    0.0000 C   0  0
    9.4650   -2.3450    0.0000 C   0  0
    8.5990   -3.8450    0.0000 C   0  0
    5.1350    3.1550    0.0000 C   0  0
    4.2690    1.6550    0.0000 C   0  0
   10.3310   -2.8450    0.0000 C   0  0
    9.4650   -4.3450    0.0000 C   0  0
    4.2690    3.6550    0.0000 C   0  0
   10.3310   -3.8450    0.0000 C   0  0
    3.4030    2.1550    0.0000 C   0  0
    3.4030    3.1550    0.0000 C   0  0
    6.3300   -0.5350    0.0000 H   0  0
    8.3440   -1.4530    0.0000 H   0  0
    7.9450   -0.7620    0.0000 H   0  0
    7.1220   -2.2370    0.0000 H   0  0
    7.5210   -2.9280    0.0000 H   0  0
    7.4040    0.4650    0.0000 H   0  0
    5.3900    0.7630    0.0000 H   0  0
    5.7890    0.0720    0.0000 H   0  0
    5.6910   -0.8080    0.0000 H   0  0
    5.4640   -1.6550    0.0000 H   0  0
    6.3110   -1.8820    0.0000 H   0  0
    6.6120    1.5470    0.0000 H   0  0
    6.2130    2.2380    0.0000 H   0  0
    9.4650   -1.7250    0.0000 H   0  0
    8.0620   -4.1550    0.0000 H   0  0
    5.6720    3.4650    0.0000 H   0  0
    4.2690    1.0350    0.0000 H   0  0
   10.8680   -2.5350    0.0000 H   0  0
    9.4650   -4.9650    0.0000 H   0  0
    2.8660    1.8450    0.0000 H   0  0
    4.8060    4.9650    0.0000 H   0  0
   11.1970   -4.9650    0.0000 H   0  0
    2.0000    3.3450    0.0000 H   0  0
  1 19  1  0
  1 43  1  0
  2 20  1  0
  2 44  1  0
  3 22  1  0
  3 45  1  0
  4  5  1  0
  4  8  1  0
  4 28  1  0
  5  6  1  0
  5  9  1  0
  5 23  1  0
  6  7  1  0
  6 24  1  0
  6 25  1  0
  7 11  1  0
  7 26  1  0
  7 27  1  0
  8 10  1  0
  8 29  1  0
  8 30  1  0
  9 31  1  0
  9 32  1  0
  9 33  1  0
 10 12  1  0
 10 34  1  0
 10 35  1  0
 11 13  2  0
 11 14  1  0
 12 15  2  0
 12 16  1  0
 13 17  1  0
 13 36  1  0
 14 18  2  0
 14 37  1  0
 15 19  1  0
 15 38  1  0
 16 21  2  0
 16 39  1  0
 17 20  2  0
 17 40  1  0
 18 20  1  0
 18 41  1  0
 19 22  2  0
 21 22  1  0
 21 42  1  0
M  END
> <Name>
36811

> <PUBCHEM_COMPOUND_CID>
36811

> <Toxicity>
0

> <Data Set>
TrainingSet

$$$$
148124
  SciTegic12242523262D

111116  0  0  1  0            999 V2000
    5.1480   -6.0950    0.0000 O   0  0
    6.3180   -4.4860    0.0000 O   0  0
    7.0060   -3.6330    0.0000 O   0  0
    7.4820   -2.2870    0.0000 O   0  0
    2.4960   -3.4390    0.0000 O   0  0
    2.8690   -2.2870    0.0000 O   0  0
    3.5450   -0.6560    0.0000 O   0  0
    7.5880    0.1250    0.0000 O   0  0
    7.6040   -5.6460    0.0000 O   0  0
    8.4240   -2.6400    0.0000 O   0  0
    6.3630    1.3500    0.0000 O   0  0
    9.0020    1.5390    0.0000 O   0  0
    5.5860    4.2480    0.0000 O   0  0
    7.2590    4.6960    0.0000 O   0  0
    6.8110    3.0230    0.0000 N   0  0
    5.1760   -3.5930    0.0000 C   0  0  2  0  0  0
    5.3270   -4.6240    0.0000 C   0  0  2  0  0  0
    4.2520   -3.2110    0.0000 C   0  0  1  0  0  0
    4.5060   -5.2640    0.0000 C   0  0  1  0  0  0
    6.0990   -3.2110    0.0000 C   0  0  1  0  0  0
    6.4820   -2.2870    0.0000 C   0  0  2  0  0  0
    3.4160   -3.8320    0.0000 C   0  0  2  0  0  0
    3.5440   -4.8660    0.0000 C   0  0
    6.0990   -1.3630    0.0000 C   0  0
    5.9770   -5.4500    0.0000 C   0  0
    3.8690   -2.2870    0.0000 C   0  0
    7.1550   -1.5450    0.0000 C   0  0
    5.1760   -0.9800    0.0000 C   0  0
    3.3280   -2.8280    0.0000 C   0  0
    4.2520   -1.3630    0.0000 C   0  0  1  0  0  0
    6.8800   -0.5820    0.0000 C   0  0  1  0  0  0
    5.9170   -0.3070    0.0000 C   0  0
    6.3970   -0.2520    0.0000 C   0  0
    7.2100   -1.0650    0.0000 C   0  0
    5.6900    0.6670    0.0000 C   0  0
    6.6260   -5.4370    0.0000 C   0  0
    8.0020   -3.5460    0.0000 C   0  0
    5.9560   -6.1800    0.0000 C   0  0
    7.3290    1.0910    0.0000 C   0  0
    8.5760   -4.3650    0.0000 C   0  0
    8.0360    1.7980    0.0000 C   0  0  1  0  0  0
    9.5720   -4.2780    0.0000 C   0  0
    8.1530   -5.2720    0.0000 C   0  0
    7.7770    2.7640    0.0000 C   0  0  2  0  0  0
   10.1450   -5.0970    0.0000 C   0  0
    8.7270   -6.0910    0.0000 C   0  0
    9.7230   -6.0040    0.0000 C   0  0
    8.4840    3.4710    0.0000 C   0  0
    8.2250    4.4370    0.0000 C   0  0
    9.4500    3.2120    0.0000 C   0  0
    6.5520    3.9890    0.0000 C   0  0
    8.9320    5.1440    0.0000 C   0  0
   10.1570    3.9200    0.0000 C   0  0
    9.8980    4.8850    0.0000 C   0  0
    5.3280    5.2140    0.0000 C   0  0
    5.0690    6.1800    0.0000 C   0  0
    4.3620    4.9550    0.0000 C   0  0
    6.2930    5.4720    0.0000 C   0  0
    5.9610   -3.9190    0.0000 H   0  0
    3.9900   -5.9400    0.0000 H   0  0
    6.6770   -2.9860    0.0000 H   0  0
    2.9200   -4.2050    0.0000 H   0  0
    2.9240   -4.8360    0.0000 H   0  0
    3.4080   -5.4710    0.0000 H   0  0
    6.3580   -5.9380    0.0000 H   0  0
    6.4640   -5.0670    0.0000 H   0  0
    7.5300   -2.0390    0.0000 H   0  0
    7.7100   -1.2680    0.0000 H   0  0
    3.5650   -2.2550    0.0000 H   0  0
    2.7550   -2.5910    0.0000 H   0  0
    3.0900   -3.4010    0.0000 H   0  0
    4.3730   -0.7550    0.0000 H   0  0
    7.4810   -0.7380    0.0000 H   0  0
    6.9960   -0.4130    0.0000 H   0  0
    6.5580    0.3470    0.0000 H   0  0
    5.7980   -0.0920    0.0000 H   0  0
    7.3710   -1.6640    0.0000 H   0  0
    7.8090   -0.9050    0.0000 H   0  0
    7.0500   -0.4660    0.0000 H   0  0
    7.7920   -1.7500    0.0000 H   0  0
    2.0000   -3.8100    0.0000 H   0  0
    6.2940    0.8080    0.0000 H   0  0
    5.5490    1.2700    0.0000 H   0  0
    5.0860    0.5260    0.0000 H   0  0
    3.7050   -0.0570    0.0000 H   0  0
    5.4960   -5.7640    0.0000 H   0  0
    5.5410   -6.6400    0.0000 H   0  0
    6.4160   -6.5950    0.0000 H   0  0
    8.4740    2.2370    0.0000 H   0  0
    9.8340   -3.7160    0.0000 H   0  0
    7.5350   -5.3260    0.0000 H   0  0
    7.6160    3.3630    0.0000 H   0  0
   10.7630   -5.0430    0.0000 H   0  0
    8.4650   -6.6530    0.0000 H   0  0
    9.1620    0.9400    0.0000 H   0  0
   10.0780   -6.5110    0.0000 H   0  0
    6.3730    2.5840    0.0000 H   0  0
    7.6260    4.5980    0.0000 H   0  0
    9.6100    2.6140    0.0000 H   0  0
    8.7720    5.7430    0.0000 H   0  0
   10.7560    3.7590    0.0000 H   0  0
   10.3370    5.3240    0.0000 H   0  0
    5.6680    6.3400    0.0000 H   0  0
    4.9080    6.7780    0.0000 H   0  0
    4.4700    6.0190    0.0000 H   0  0
    4.2010    5.5540    0.0000 H   0  0
    3.7630    4.7940    0.0000 H   0  0
    4.5220    4.3560    0.0000 H   0  0
    6.4540    4.8740    0.0000 H   0  0
    6.8920    5.6330    0.0000 H   0  0
    6.1330    6.0710    0.0000 H   0  0
  1 19  1  0
  1 25  1  0
 17  2  1  1
  2 36  1  0
 20  3  1  1
  3 37  1  0
 21  4  1  6
  4 80  1  0
 22  5  1  6
  5 81  1  0
  6 26  2  0
 30  7  1  6
  7 85  1  0
 31  8  1  1
  8 39  1  0
  9 36  2  0
 10 37  2  0
 11 39  2  0
 41 12  1  1
 12 95  1  0
 13 51  1  0
 13 55  1  0
 14 51  2  0
 15 44  1  0
 15 51  1  0
 15 97  1  0
 16 17  1  0
 16 18  1  0
 16 20  1  0
 16 59  1  1
 17 19  1  0
 17 25  1  0
 18 22  1  0
 18 26  1  0
 18 29  1  6
 19 23  1  0
 19 60  1  1
 20 21  1  0
 20 61  1  6
 21 24  1  0
 21 27  1  0
 22 23  1  0
 22 62  1  1
 23 63  1  0
 23 64  1  0
 24 28  1  0
 24 33  1  0
 24 34  1  0
 25 65  1  0
 25 66  1  0
 26 30  1  0
 27 31  1  0
 27 67  1  0
 27 68  1  0
 28 30  1  0
 28 32  2  0
 29 69  1  0
 29 70  1  0
 29 71  1  0
 30 72  1  1
 31 32  1  0
 31 73  1  6
 32 35  1  0
 33 74  1  0
 33 75  1  0
 33 76  1  0
 34 77  1  0
 34 78  1  0
 34 79  1  0
 35 82  1  0
 35 83  1  0
 35 84  1  0
 36 38  1  0
 37 40  1  0
 38 86  1  0
 38 87  1  0
 38 88  1  0
 39 41  1  0
 40 42  2  0
 40 43  1  0
 41 44  1  0
 41 89  1  6
 42 45  1  0
 42 90  1  0
 43 46  2  0
 43 91  1  0
 44 48  1  1
 44 92  1  6
 45 47  2  0
 45 93  1  0
 46 47  1  0
 46 94  1  0
 47 96  1  0
 48 49  2  0
 48 50  1  0
 49 52  1  0
 49 98  1  0
 50 53  2  0
 50 99  1  0
 52 54  2  0
 52100  1  0
 53 54  1  0
 53101  1  0
 54102  1  0
 55 56  1  0
 55 57  1  0
 55 58  1  0
 56103  1  0
 56104  1  0
 56105  1  0
 57106  1  0
 57107  1  0
 57108  1  0
 58109  1  0
 58110  1  0
 58111  1  0
M  END
> <Name>
148124

> <PUBCHEM_COMPOUND_CID>
148124

> <Toxicity>
1

> <Data Set>
TrainingSet

$$$$
11339
  SciTegic12242523262D

 66 65  0  0  1  0            999 V2000
    9.7940    3.2500    0.0000 S   0  0
    7.1960    2.7500    0.0000 O   0  0
    8.0620    0.2500    0.0000 O   0  0
    8.0620    4.2500    0.0000 O   0  0
   10.6600    3.7500    0.0000 O   0  0
    7.1960    1.7500    0.0000 O   0  0
   10.2940    2.3840    0.0000 O   0  0
    9.2940    4.1160    0.0000 O   0  0
    5.4640    2.7500    0.0000 C   0  0
    7.1960   -1.2500    0.0000 C   0  0
    4.5980    3.2500    0.0000 C   0  0
    6.3300   -1.7500    0.0000 C   0  0
    5.4640    1.7500    0.0000 C   0  0
    8.0620   -1.7500    0.0000 C   0  0
    6.3300    3.2500    0.0000 C   0  0
    3.7320    2.7500    0.0000 C   0  0
    6.3300   -2.7500    0.0000 C   0  0
    7.1960   -0.2500    0.0000 C   0  0
    2.8660    3.2500    0.0000 C   0  0
    5.4640   -3.2500    0.0000 C   0  0
    8.9280    2.7500    0.0000 C   0  0
    4.5980    1.2500    0.0000 C   0  0
    8.0620   -2.7500    0.0000 C   0  0
    8.9280    1.7500    0.0000 C   0  0
    8.0620    3.2500    0.0000 C   0  0
    8.0620    1.2500    0.0000 C   0  0
    2.0000    2.7500    0.0000 C   0  0
    5.4640   -4.2500    0.0000 C   0  0
    5.4640    3.6000    0.0000 H   0  0
    6.4600   -0.8250    0.0000 H   0  0
    4.9970    3.7250    0.0000 H   0  0
    4.2000    3.7250    0.0000 H   0  0
    6.1180   -1.1670    0.0000 H   0  0
    5.7200   -1.8580    0.0000 H   0  0
    5.6760    1.1670    0.0000 H   0  0
    6.0750    1.8580    0.0000 H   0  0
    8.6730   -1.8580    0.0000 H   0  0
    8.2740   -1.1670    0.0000 H   0  0
    6.7290    3.7250    0.0000 H   0  0
    5.9320    3.7250    0.0000 H   0  0
    3.3340    2.2750    0.0000 H   0  0
    4.1310    2.2750    0.0000 H   0  0
    6.5420   -3.3330    0.0000 H   0  0
    6.9410   -2.6420    0.0000 H   0  0
    6.9840    0.3330    0.0000 H   0  0
    6.5860   -0.3580    0.0000 H   0  0
    3.2650    3.7250    0.0000 H   0  0
    2.4680    3.7250    0.0000 H   0  0
    5.2520   -2.6670    0.0000 H   0  0
    4.8540   -3.3580    0.0000 H   0  0
    9.6640    2.3250    0.0000 H   0  0
    4.2880    1.7870    0.0000 H   0  0
    4.0610    0.9400    0.0000 H   0  0
    4.9080    0.7130    0.0000 H   0  0
    7.4420   -2.7500    0.0000 H   0  0
    8.0620   -3.3700    0.0000 H   0  0
    8.6820   -2.7500    0.0000 H   0  0
    9.1400    1.1670    0.0000 H   0  0
    9.5390    1.8580    0.0000 H   0  0
    1.6900    3.2870    0.0000 H   0  0
    1.4630    2.4400    0.0000 H   0  0
    2.3100    2.2130    0.0000 H   0  0
    4.8440   -4.2500    0.0000 H   0  0
    5.4640   -4.8700    0.0000 H   0  0
    6.0840   -4.2500    0.0000 H   0  0
   11.1970    3.4400    0.0000 H   0  0
  1  5  1  0
  1  7  2  0
  1  8  2  0
  1 21  1  0
  2 15  1  0
  2 25  1  0
  3 18  1  0
  3 26  1  0
  4 25  2  0
  5 66  1  0
  6 26  2  0
  9 11  1  0
  9 13  1  0
  9 15  1  0
  9 29  1  0
 10 12  1  0
 10 14  1  0
 10 18  1  0
 10 30  1  0
 11 16  1  0
 11 31  1  0
 11 32  1  0
 12 17  1  0
 12 33  1  0
 12 34  1  0
 13 22  1  0
 13 35  1  0
 13 36  1  0
 14 23  1  0
 14 37  1  0
 14 38  1  0
 15 39  1  0
 15 40  1  0
 16 19  1  0
 16 41  1  0
 16 42  1  0
 17 20  1  0
 17 43  1  0
 17 44  1  0
 18 45  1  0
 18 46  1  0
 19 27  1  0
 19 47  1  0
 19 48  1  0
 20 28  1  0
 20 49  1  0
 20 50  1  0
 21 24  1  0
 21 25  1  0
 21 51  1  0
 22 52  1  0
 22 53  1  0
 22 54  1  0
 23 55  1  0
 23 56  1  0
 23 57  1  0
 24 26  1  0
 24 58  1  0
 24 59  1  0
 27 60  1  0
 27 61  1  0
 27 62  1  0
 28 63  1  0
 28 64  1  0
 28 65  1  0
M  END
> <Name>
11339

> <PUBCHEM_COMPOUND_CID>
11339

> <Toxicity>
0

> <Data Set>
TrainingSet

$$$$
3152
  SciTegic12242523262D

 57 60  0  0  1  0            999 V2000
    5.8550    2.9200    0.0000 O   0  0
    2.0000    0.1650    0.0000 O   0  0
    2.0000    2.1650    0.0000 O   0  0
    8.6280   -1.4330    0.0000 N   0  0
    7.6280    0.2990    0.0000 C   0  0
    7.1280    1.1650    0.0000 C   0  0
    6.1280    1.1650    0.0000 C   0  0
    8.6280    0.2990    0.0000 C   0  0
    7.1280   -0.5670    0.0000 C   0  0
    9.1280   -0.5670    0.0000 C   0  0
    7.6280   -1.4330    0.0000 C   0  0
    5.5440    0.3600    0.0000 C   0  0
    5.5440    1.9700    0.0000 C   0  0
    4.5980    0.6650    0.0000 C   0  0
    4.5980    1.6650    0.0000 C   0  0
    9.1280   -2.2990    0.0000 C   0  0
    3.7320    0.1650    0.0000 C   0  0
    3.7320    2.1650    0.0000 C   0  0
   10.1280   -2.2990    0.0000 C   0  0
    2.8660    0.6650    0.0000 C   0  0
    2.8660    1.6650    0.0000 C   0  0
   10.6280   -3.1650    0.0000 C   0  0
   10.6280   -1.4330    0.0000 C   0  0
   11.6280   -3.1650    0.0000 C   0  0
   11.6280   -1.4330    0.0000 C   0  0
   12.1280   -2.2990    0.0000 C   0  0
    2.0000   -0.8350    0.0000 C   0  0
    2.0000    3.1650    0.0000 C   0  0
    7.9380    0.8360    0.0000 H   0  0
    7.7100    1.3770    0.0000 H   0  0
    7.0200    1.7760    0.0000 H   0  0
    6.4100    0.6130    0.0000 H   0  0
    9.2100    0.5110    0.0000 H   0  0
    8.5200    0.9100    0.0000 H   0  0
    6.6530   -0.1680    0.0000 H   0  0
    6.6530   -0.9660    0.0000 H   0  0
    9.6030   -0.9660    0.0000 H   0  0
    9.6030   -0.1680    0.0000 H   0  0
    7.0450   -1.6450    0.0000 H   0  0
    7.7360   -2.0440    0.0000 H   0  0
    5.2930   -0.2070    0.0000 H   0  0
    6.0820    0.0510    0.0000 H   0  0
    8.5450   -2.5110    0.0000 H   0  0
    9.2360   -2.9100    0.0000 H   0  0
    3.7320   -0.4550    0.0000 H   0  0
    3.7320    2.7850    0.0000 H   0  0
   10.3180   -3.7020    0.0000 H   0  0
   10.3180   -0.8960    0.0000 H   0  0
   11.9380   -3.7020    0.0000 H   0  0
   11.9380   -0.8960    0.0000 H   0  0
   12.7480   -2.2990    0.0000 H   0  0
    1.3800   -0.8350    0.0000 H   0  0
    2.0000   -1.4550    0.0000 H   0  0
    2.6200   -0.8350    0.0000 H   0  0
    2.6200    3.1650    0.0000 H   0  0
    2.0000    3.7850    0.0000 H   0  0
    1.3800    3.1650    0.0000 H   0  0
  1 13  2  0
  2 20  1  0
  2 27  1  0
  3 21  1  0
  3 28  1  0
  4 10  1  0
  4 11  1  0
  4 16  1  0
  5  6  1  0
  5  8  1  0
  5  9  1  0
  5 29  1  0
  6  7  1  0
  6 30  1  0
  6 31  1  0
  7 12  1  0
  7 13  1  0
  7 32  1  0
  8 10  1  0
  8 33  1  0
  8 34  1  0
  9 11  1  0
  9 35  1  0
  9 36  1  0
 10 37  1  0
 10 38  1  0
 11 39  1  0
 11 40  1  0
 12 14  1  0
 12 41  1  0
 12 42  1  0
 13 15  1  0
 14 15  2  0
 14 17  1  0
 15 18  1  0
 16 19  1  0
 16 43  1  0
 16 44  1  0
 17 20  2  0
 17 45  1  0
 18 21  2  0
 18 46  1  0
 19 22  2  0
 19 23  1  0
 20 21  1  0
 22 24  1  0
 22 47  1  0
 23 25  2  0
 23 48  1  0
 24 26  2  0
 24 49  1  0
 25 26  1  0
 25 50  1  0
 26 51  1  0
 27 52  1  0
 27 53  1  0
 27 54  1  0
 28 55  1  0
 28 56  1  0
 28 57  1  0
M  END
> <Name>
3152

> <PUBCHEM_COMPOUND_CID>
3152

> <Toxicity>
1

> <Data Set>
TrainingSet

$$$$
681
  SciTegic12242523262D

 22 22  0  0  0  0            999 V2000
    4.2690    2.4050    0.0000 O   0  0
    2.5370    1.4050    0.0000 O   0  0
    6.8670   -2.0950    0.0000 N   0  0
    6.0010   -0.5950    0.0000 C   0  0
    5.1350   -0.0950    0.0000 C   0  0
    6.0010   -1.5950    0.0000 C   0  0
    5.1350    0.9050    0.0000 C   0  0
    4.2690   -0.5950    0.0000 C   0  0
    4.2690    1.4050    0.0000 C   0  0
    3.4030   -0.0950    0.0000 C   0  0
    3.4030    0.9050    0.0000 C   0  0
    6.6120   -0.7030    0.0000 H   0  0
    6.2130   -0.0120    0.0000 H   0  0
    5.3900   -1.4870    0.0000 H   0  0
    5.7890   -2.1780    0.0000 H   0  0
    5.6720    1.2150    0.0000 H   0  0
    4.2690   -1.2150    0.0000 H   0  0
    2.8660   -0.4050    0.0000 H   0  0
    6.8670   -2.7150    0.0000 H   0  0
    7.4040   -1.7850    0.0000 H   0  0
    4.8060    2.7150    0.0000 H   0  0
    2.0000    1.0950    0.0000 H   0  0
  1  9  1  0
  1 21  1  0
  2 11  1  0
  2 22  1  0
  3  6  1  0
  3 19  1  0
  3 20  1  0
  4  5  1  0
  4  6  1  0
  4 12  1  0
  4 13  1  0
  5  7  2  0
  5  8  1  0
  6 14  1  0
  6 15  1  0
  7  9  1  0
  7 16  1  0
  8 10  2  0
  8 17  1  0
  9 11  2  0
 10 11  1  0
 10 18  1  0
M  END
> <Name>
681

> <PUBCHEM_COMPOUND_CID>
681

> <Toxicity>
0

> <Data Set>
TrainingSet

$$$$
667468
  SciTegic12242523262D

 42 44  0  0  0  0            999 V2000
    5.3830    3.0950    0.0000 O   0  0
    6.6150   -2.0950    0.0000 N   0  0
    4.8830    0.9050    0.0000 C   0  0
    3.9820    1.3390    0.0000 C   0  0
    5.7840    1.3390    0.0000 C   0  0
    3.7600    2.3140    0.0000 C   0  0
    5.7490   -0.5950    0.0000 C   0  0
    4.8830   -0.0950    0.0000 C   0  0
    5.7490   -1.5950    0.0000 C   0  0
    4.3830    3.0950    0.0000 C   0  0
    6.0060    2.3140    0.0000 C   0  0
    3.2300    0.6180    0.0000 C   0  0
    2.7690    2.6360    0.0000 C   0  0
    6.5360    0.6180    0.0000 C   0  0
    6.9970    2.6360    0.0000 C   0  0
    2.2320    0.9180    0.0000 C   0  0
    2.0000    1.9330    0.0000 C   0  0
    7.5340    0.9180    0.0000 C   0  0
    7.7660    1.9330    0.0000 C   0  0
    6.6150   -3.0950    0.0000 C   0  0
    7.4810   -1.5950    0.0000 C   0  0
    6.3600   -0.7030    0.0000 H   0  0
    5.9610   -0.0130    0.0000 H   0  0
    4.3460   -0.4050    0.0000 H   0  0
    5.1380   -1.4880    0.0000 H   0  0
    5.5370   -2.1780    0.0000 H   0  0
    4.5210    3.7000    0.0000 H   0  0
    3.8240    3.3640    0.0000 H   0  0
    3.3740    0.0160    0.0000 H   0  0
    2.6380    3.2420    0.0000 H   0  0
    6.3920    0.0160    0.0000 H   0  0
    7.1280    3.2420    0.0000 H   0  0
    1.7790    0.4940    0.0000 H   0  0
    1.4080    2.1180    0.0000 H   0  0
    7.9870    0.4940    0.0000 H   0  0
    8.3580    2.1180    0.0000 H   0  0
    5.9950   -3.0950    0.0000 H   0  0
    6.6150   -3.7150    0.0000 H   0  0
    7.2350   -3.0950    0.0000 H   0  0
    7.7910   -2.1320    0.0000 H   0  0
    8.0180   -1.2850    0.0000 H   0  0
    7.1710   -1.0580    0.0000 H   0  0
  1 10  1  0
  1 11  1  0
  2  9  1  0
  2 20  1  0
  2 21  1  0
  3  4  1  0
  3  5  1  0
  3  8  2  0
  4  6  1  0
  4 12  2  0
  5 11  1  0
  5 14  2  0
  6 10  1  0
  6 13  2  0
  7  8  1  0
  7  9  1  0
  7 22  1  0
  7 23  1  0
  8 24  1  0
  9 25  1  0
  9 26  1  0
 10 27  1  0
 10 28  1  0
 11 15  2  0
 12 16  1  0
 12 29  1  0
 13 17  1  0
 13 30  1  0
 14 18  1  0
 14 31  1  0
 15 19  1  0
 15 32  1  0
 16 17  2  0
 16 33  1  0
 17 34  1  0
 18 19  2  0
 18 35  1  0
 19 36  1  0
 20 37  1  0
 20 38  1  0
 20 39  1  0
 21 40  1  0
 21 41  1  0
 21 42  1  0
M  END
> <Name>
667468

> <PUBCHEM_COMPOUND_CID>
667468

> <Toxicity>
1

> <Data Set>
TrainingSet

$$$$
31703
  SciTegic12242523262D

 68 72  0  0  1  0            999 V2000
    6.0010   -0.9440    0.0000 O   0  0
    4.2690   -0.9440    0.0000 O   0  0
    7.2920   -3.8690    0.0000 O   0  0
    2.5370   -2.9440    0.0000 O   0  0
    6.8880    0.5640    0.0000 O   0  0
   10.3750   -1.3960    0.0000 O   0  0
    7.8060   -4.7270    0.0000 O   0  0
    9.8060   -4.6960    0.0000 O   0  0
    7.7140    2.1050    0.0000 O   0  0
   11.2620    0.1110    0.0000 O   0  0
    8.5770    3.7280    0.0000 O   0  0
    4.2690   -3.9440    0.0000 N   0  0
    6.8670   -1.4440    0.0000 C   0  0  1  0  0  0
    7.7790   -2.9960    0.0000 C   0  0  2  0  0  0
    6.8710   -2.4850    0.0000 C   0  0
    8.6710   -2.4570    0.0000 C   0  0
    7.7710   -0.9260    0.0000 C   0  0
    8.6430   -1.4160    0.0000 C   0  0
    5.1350   -1.4440    0.0000 C   0  0  2  0  0  0
    5.1350   -2.4440    0.0000 C   0  0
    4.2690   -2.9440    0.0000 C   0  0  1  0  0  0
    3.4030   -2.4440    0.0000 C   0  0  1  0  0  0
    3.4030   -1.4440    0.0000 C   0  0  2  0  0  0
    7.7600    0.0740    0.0000 C   0  0
    8.2920   -3.8540    0.0000 C   0  0
    9.5030   -0.9060    0.0000 C   0  0
    8.6200    0.5840    0.0000 C   0  0
    9.4920    0.0940    0.0000 C   0  0
    2.5370   -0.9440    0.0000 C   0  0
    9.2920   -3.8380    0.0000 C   0  0
    8.5920    1.6250    0.0000 C   0  0
   10.3960    0.6110    0.0000 C   0  0
    9.4840    2.1630    0.0000 C   0  0
   10.3920    1.6530    0.0000 C   0  0
    9.4540    3.2480    0.0000 C   0  0
   11.3330    2.1920    0.0000 C   0  0
   10.3830    3.8080    0.0000 C   0  0
   11.3290    3.2770    0.0000 C   0  0
    8.5540    4.7270    0.0000 C   0  0
    6.3310   -1.7540    0.0000 H   0  0
    6.2600   -2.3810    0.0000 H   0  0
    6.6640   -3.0700    0.0000 H   0  0
    8.8960   -3.0350    0.0000 H   0  0
    9.2790   -2.3350    0.0000 H   0  0
    5.6720   -1.7540    0.0000 H   0  0
    5.3470   -3.0260    0.0000 H   0  0
    5.7460   -2.3360    0.0000 H   0  0
    4.8060   -3.2540    0.0000 H   0  0
    3.4030   -3.0640    0.0000 H   0  0
    3.4030   -0.8240    0.0000 H   0  0
    6.6730   -3.8790    0.0000 H   0  0
    2.8470   -0.4060    0.0000 H   0  0
    2.0000   -0.6340    0.0000 H   0  0
    2.2270   -1.4800    0.0000 H   0  0
    3.7320   -4.2540    0.0000 H   0  0
    4.8060   -4.2540    0.0000 H   0  0
    9.8720   -3.6170    0.0000 H   0  0
    9.1750   -3.2290    0.0000 H   0  0
    2.0000   -2.6340    0.0000 H   0  0
    6.8810    1.1840    0.0000 H   0  0
   10.3820   -2.0160    0.0000 H   0  0
   11.8700    1.8820    0.0000 H   0  0
   10.4260   -4.6870    0.0000 H   0  0
   10.3740    4.4280    0.0000 H   0  0
   11.8640    3.5910    0.0000 H   0  0
    9.1740    4.7420    0.0000 H   0  0
    8.5400    5.3470    0.0000 H   0  0
    7.9340    4.7130    0.0000 H   0  0
 13  1  1  6
 19  1  1  1
  2 19  1  0
  2 23  1  0
 14  3  1  6
  3 51  1  0
 22  4  1  6
  4 59  1  0
  5 24  1  0
  5 60  1  0
  6 26  1  0
  6 61  1  0
  7 25  2  0
  8 30  1  0
  8 63  1  0
  9 31  2  0
 10 32  2  0
 11 35  1  0
 11 39  1  0
 21 12  1  6
 12 55  1  0
 12 56  1  0
 13 15  1  0
 13 17  1  0
 13 40  1  1
 14 15  1  0
 14 16  1  0
 14 25  1  1
 15 41  1  0
 15 42  1  0
 16 18  1  0
 16 43  1  0
 16 44  1  0
 17 18  1  0
 17 24  2  0
 18 26  2  0
 19 20  1  0
 19 45  1  6
 20 21  1  0
 20 46  1  0
 20 47  1  0
 21 22  1  0
 21 48  1  1
 22 23  1  0
 22 49  1  1
 23 29  1  6
 23 50  1  1
 24 27  1  0
 25 30  1  0
 26 28  1  0
 27 28  2  0
 27 31  1  0
 28 32  1  0
 29 52  1  0
 29 53  1  0
 29 54  1  0
 30 57  1  0
 30 58  1  0
 31 33  1  0
 32 34  1  0
 33 34  2  0
 33 35  1  0
 34 36  1  0
 35 37  2  0
 36 38  2  0
 36 62  1  0
 37 38  1  0
 37 64  1  0
 38 65  1  0
 39 66  1  0
 39 67  1  0
 39 68  1  0
M  END
> <Name>
31703

> <PUBCHEM_COMPOUND_CID>
31703

> <Toxicity>
1

> <Data Set>
TrainingSet

$$$$
16078
  SciTegic12242523262D

 53 55  0  0  1  0            999 V2000
    8.9940   -2.1020    0.0000 O   0  0
    7.2460    0.9330    0.0000 O   0  0
    9.8600   -0.6020    0.0000 C   0  0  2  0  0  0
    8.9940   -0.1020    0.0000 C   0  0  2  0  0  0
    9.8600   -1.6020    0.0000 C   0  0
   10.7700   -0.0950    0.0000 C   0  0
    8.1280   -0.6020    0.0000 C   0  0
   10.7780    0.9470    0.0000 C   0  0
    8.9780    0.9400    0.0000 C   0  0
    9.8760    1.4680    0.0000 C   0  0
    8.1280   -1.6020    0.0000 C   0  0
   10.3600   -2.4680    0.0000 C   0  0
   10.8600   -1.6020    0.0000 C   0  0
    7.2340   -0.0670    0.0000 C   0  0
    7.2340   -2.1360    0.0000 C   0  0
    9.8720    2.4680    0.0000 C   0  0
    6.3280   -1.6220    0.0000 C   0  0
    6.3280   -0.5810    0.0000 C   0  0
    5.4640   -2.1260    0.0000 C   0  0
    4.5960   -1.6290    0.0000 C   0  0
    3.7320   -2.1320    0.0000 C   0  0
    2.8640   -1.6360    0.0000 C   0  0
    2.0000   -2.1390    0.0000 C   0  0
   10.5930   -1.0320    0.0000 H   0  0
    9.7270    0.3290    0.0000 H   0  0
   10.9750   -0.6800    0.0000 H   0  0
   11.3820    0.0070    0.0000 H   0  0
   11.3880    0.8360    0.0000 H   0  0
   10.9920    1.5290    0.0000 H   0  0
    8.4380    1.2440    0.0000 H   0  0
    9.8230   -2.7780    0.0000 H   0  0
   10.6700   -3.0050    0.0000 H   0  0
   10.8970   -2.1580    0.0000 H   0  0
   10.8600   -2.2220    0.0000 H   0  0
   11.4800   -1.6020    0.0000 H   0  0
   10.8600   -0.9820    0.0000 H   0  0
    7.2410   -2.7560    0.0000 H   0  0
   10.4920    2.4700    0.0000 H   0  0
    9.8700    3.0880    0.0000 H   0  0
    9.2520    2.4650    0.0000 H   0  0
    5.7920   -0.2690    0.0000 H   0  0
    5.0670   -2.6020    0.0000 H   0  0
    5.8640   -2.5990    0.0000 H   0  0
    4.9930   -1.1530    0.0000 H   0  0
    4.1960   -1.1560    0.0000 H   0  0
    6.7120    1.2490    0.0000 H   0  0
    3.3350   -2.6090    0.0000 H   0  0
    4.1320   -2.6060    0.0000 H   0  0
    3.2610   -1.1590    0.0000 H   0  0
    2.4640   -1.1620    0.0000 H   0  0
    1.6880   -1.6030    0.0000 H   0  0
    1.4640   -2.4510    0.0000 H   0  0
    2.3120   -2.6750    0.0000 H   0  0
  1  5  1  0
  1 11  1  0
  2 14  1  0
  2 46  1  0
  3  4  1  0
  3  5  1  0
  3  6  1  0
  3 24  1  6
  4  7  1  0
  4  9  1  0
  4 25  1  1
  5 12  1  0
  5 13  1  0
  6  8  1  0
  6 26  1  0
  6 27  1  0
  7 11  1  0
  7 14  2  0
  8 10  1  0
  8 28  1  0
  8 29  1  0
  9 10  2  0
  9 30  1  0
 10 16  1  0
 11 15  2  0
 12 31  1  0
 12 32  1  0
 12 33  1  0
 13 34  1  0
 13 35  1  0
 13 36  1  0
 14 18  1  0
 15 17  1  0
 15 37  1  0
 16 38  1  0
 16 39  1  0
 16 40  1  0
 17 18  2  0
 17 19  1  0
 18 41  1  0
 19 20  1  0
 19 42  1  0
 19 43  1  0
 20 21  1  0
 20 44  1  0
 20 45  1  0
 21 22  1  0
 21 47  1  0
 21 48  1  0
 22 23  1  0
 22 49  1  0
 22 50  1  0
 23 51  1  0
 23 52  1  0
 23 53  1  0
M  END
> <Name>
16078

> <PUBCHEM_COMPOUND_CID>
16078

> <Toxicity>
1

> <Data Set>
TrainingSet

$$$$
64139
  SciTegic12242523262D

 30 32  0  0  1  0            999 V2000
    2.0000    0.4650    0.0000 Cl  0  0
    6.5300   -1.2430    0.0000 F   0  0
    6.8960    0.1230    0.0000 F   0  0
    5.5300   -1.2430    0.0000 F   0  0
    6.3960    0.9890    0.0000 O   0  0
    7.2620    2.4890    0.0000 O   0  0
    5.5300    2.4890    0.0000 N   0  0
    4.0300   -2.1090    0.0000 C   0  0
    3.1640   -2.6090    0.0000 C   0  0
    4.0300   -3.1090    0.0000 C   0  0
    5.5300    0.4890    0.0000 C   0  0  2  0  0  0
    4.5300   -1.2430    0.0000 C   0  0
    4.6640    0.9890    0.0000 C   0  0
    5.0300   -0.3770    0.0000 C   0  0
    4.6640    1.9890    0.0000 C   0  0
    6.0300   -0.3770    0.0000 C   0  0
    3.7700    0.4540    0.0000 C   0  0
    3.7700    2.5240    0.0000 C   0  0
    6.3960    1.9890    0.0000 C   0  0
    2.8640    0.9680    0.0000 C   0  0
    2.8640    2.0100    0.0000 C   0  0
    4.6290   -2.2700    0.0000 H   0  0
    2.7660   -2.1340    0.0000 H   0  0
    2.7660   -3.0840    0.0000 H   0  0
    3.8180   -3.6920    0.0000 H   0  0
    4.6410   -3.2170    0.0000 H   0  0
    3.7770   -0.1660    0.0000 H   0  0
    5.5300    3.1090    0.0000 H   0  0
    3.7770    3.1440    0.0000 H   0  0
    2.3280    2.3220    0.0000 H   0  0
  1 20  1  0
  2 16  1  0
  3 16  1  0
  4 16  1  0
  5 11  1  0
  5 19  1  0
  6 19  2  0
  7 15  1  0
  7 19  1  0
  7 28  1  0
  8  9  1  0
  8 10  1  0
  8 12  1  0
  8 22  1  0
  9 10  1  0
  9 23  1  0
  9 24  1  0
 10 25  1  0
 10 26  1  0
 11 13  1  0
 11 14  1  1
 11 16  1  6
 12 14  3  0
 13 15  1  0
 13 17  2  0
 15 18  2  0
 17 20  1  0
 17 27  1  0
 18 21  1  0
 18 29  1  0
 20 21  2  0
 21 30  1  0
M  END
> <Name>
64139

> <PUBCHEM_COMPOUND_CID>
64139

> <Toxicity>
0

> <Data Set>
TrainingSet

$$$$
11250647
  SciTegic12242523262D

 75 78  0  0  1  0            999 V2000
    4.5980    1.1100    0.0000 F   0  0
    7.4340   -3.7370    0.0000 F   0  0
    3.1940   -4.7480    0.0000 F   0  0
    4.0050   -5.9070    0.0000 F   0  0
    4.3520   -3.9370    0.0000 F   0  0
    7.1960   -2.3900    0.0000 O   0  0
    5.4640    0.6100    0.0000 O   0  0
    2.8660    2.1100    0.0000 O   0  0
    7.6960    5.6720    0.0000 O   0  0
    6.1960    4.8060    0.0000 O   0  0
    6.3300   -0.8900    0.0000 N   0  0
    5.4640   -2.3900    0.0000 N   0  0
    7.1960    1.3420    0.0000 N   0  0
    7.6960    0.4760    0.0000 C   0  0  1  0  0  0
    7.1960   -0.3900    0.0000 C   0  0
    4.5980   -1.8900    0.0000 C   0  0
    6.3300   -1.8900    0.0000 C   0  0
    4.5980   -0.8900    0.0000 C   0  0
    8.6960    0.4760    0.0000 C   0  0
    5.4640   -0.3900    0.0000 C   0  0
    5.4640   -3.3900    0.0000 C   0  0
    7.6960    2.2080    0.0000 C   0  0
    7.1960    3.0740    0.0000 C   0  0
    3.7320   -0.3900    0.0000 C   0  0
    5.8060   -4.3300    0.0000 C   0  0
    3.7320   -2.3900    0.0000 C   0  0
    9.1960   -0.3900    0.0000 C   0  0
    9.1960    1.3420    0.0000 C   0  0
    5.1630   -5.0960    0.0000 C   0  0
    7.6960    3.9400    0.0000 C   0  0
    3.7320    0.6100    0.0000 C   0  0
    2.8660   -0.8900    0.0000 C   0  0
    6.7910   -4.5030    0.0000 C   0  0
   10.1960   -0.3900    0.0000 C   0  0
   10.1960    1.3420    0.0000 C   0  0
   10.6960    0.4760    0.0000 C   0  0
    5.5050   -6.0360    0.0000 C   0  0
    2.8660    1.1100    0.0000 C   0  0
    4.1790   -4.9220    0.0000 C   0  0
    7.1330   -5.4430    0.0000 C   0  0
    2.0000   -0.3900    0.0000 C   0  0
    6.4900   -6.2090    0.0000 C   0  0
    2.0000    0.6100    0.0000 C   0  0
    7.1960    4.8060    0.0000 C   0  0
    2.0000    2.6100    0.0000 C   0  0
    8.0060    1.0130    0.0000 H   0  0
    7.3040   -1.0010    0.0000 H   0  0
    6.7580    0.0480    0.0000 H   0  0
    6.5760    1.3420    0.0000 H   0  0
    4.8950   -3.1440    0.0000 H   0  0
    6.0750   -3.2820    0.0000 H   0  0
    8.1710    1.8100    0.0000 H   0  0
    8.1710    2.6070    0.0000 H   0  0
    6.7210    3.4730    0.0000 H   0  0
    6.7210    2.6760    0.0000 H   0  0
    3.4220   -1.8530    0.0000 H   0  0
    3.1950   -2.7000    0.0000 H   0  0
    4.0420   -2.9270    0.0000 H   0  0
    8.8860   -0.9270    0.0000 H   0  0
    8.8860    1.8790    0.0000 H   0  0
    8.1710    3.5420    0.0000 H   0  0
    8.1710    4.3390    0.0000 H   0  0
    2.8660   -1.5100    0.0000 H   0  0
   10.5060   -0.9270    0.0000 H   0  0
   10.5060    1.8790    0.0000 H   0  0
   11.3160    0.4760    0.0000 H   0  0
    5.1070   -6.5100    0.0000 H   0  0
    7.7440   -5.5510    0.0000 H   0  0
    1.4630   -0.7000    0.0000 H   0  0
    6.7020   -6.7920    0.0000 H   0  0
    1.4630    0.9200    0.0000 H   0  0
    7.3860    6.2090    0.0000 H   0  0
    2.3100    3.1470    0.0000 H   0  0
    1.4630    2.9200    0.0000 H   0  0
    1.6900    2.0730    0.0000 H   0  0
  1 31  1  0
  2 33  1  0
  3 39  1  0
  4 39  1  0
  5 39  1  0
  6 17  2  0
  7 20  2  0
  8 38  1  0
  8 45  1  0
  9 44  1  0
  9 72  1  0
 10 44  2  0
 11 15  1  0
 11 17  1  0
 11 20  1  0
 12 16  1  0
 12 17  1  0
 12 21  1  0
 13 14  1  0
 13 22  1  0
 13 49  1  0
 14 15  1  0
 14 19  1  6
 14 46  1  1
 15 47  1  0
 15 48  1  0
 16 18  2  0
 16 26  1  0
 18 20  1  0
 18 24  1  0
 19 27  2  0
 19 28  1  0
 21 25  1  0
 21 50  1  0
 21 51  1  0
 22 23  1  0
 22 52  1  0
 22 53  1  0
 23 30  1  0
 23 54  1  0
 23 55  1  0
 24 31  2  0
 24 32  1  0
 25 29  2  0
 25 33  1  0
 26 56  1  0
 26 57  1  0
 26 58  1  0
 27 34  1  0
 27 59  1  0
 28 35  2  0
 28 60  1  0
 29 37  1  0
 29 39  1  0
 30 44  1  0
 30 61  1  0
 30 62  1  0
 31 38  1  0
 32 41  2  0
 32 63  1  0
 33 40  2  0
 34 36  2  0
 34 64  1  0
 35 36  1  0
 35 65  1  0
 36 66  1  0
 37 42  2  0
 37 67  1  0
 38 43  2  0
 40 42  1  0
 40 68  1  0
 41 43  1  0
 41 69  1  0
 42 70  1  0
 43 71  1  0
 45 73  1  0
 45 74  1  0
 45 75  1  0
M  END
> <Name>
11250647

> <PUBCHEM_COMPOUND_CID>
11250647

> <Toxicity>
1

> <Data Set>
TrainingSet

$$$$
135449332
  SciTegic12242523262D

 55 58  0  0  0  0            999 V2000
    6.5240   -3.1400    0.0000 O   0  0
    6.7510    2.0230    0.0000 O   0  0
   10.2150    6.0230    0.0000 O   0  0
   11.0810    4.5230    0.0000 O   0  0
    4.8020   -2.6790    0.0000 N   0  0
    4.3020   -1.8130    0.0000 N   0  0
    6.7510   -0.9770    0.0000 N   0  0
    6.7510    0.0230    0.0000 N   0  0
    4.3960   -3.5930    0.0000 C   0  0
    4.9720   -1.0700    0.0000 C   0  0
    2.9940   -4.6110    0.0000 C   0  0
    5.7810   -2.4710    0.0000 C   0  0
    5.8850   -1.4770    0.0000 C   0  0
    3.4010   -3.6970    0.0000 C   0  0
    3.5820   -5.4200    0.0000 C   0  0
    4.9840   -4.4020    0.0000 C   0  0
    4.5770   -5.3150    0.0000 C   0  0
    4.7640   -0.0920    0.0000 C   0  0
    2.0000   -4.7150    0.0000 C   0  0
    3.1760   -6.3330    0.0000 C   0  0
    8.4830    2.0230    0.0000 C   0  0
    8.4830    3.0230    0.0000 C   0  0
    7.6170    1.5230    0.0000 C   0  0
    7.6170    0.5230    0.0000 C   0  0
    9.3490    1.5230    0.0000 C   0  0
    9.3490    3.5230    0.0000 C   0  0
    8.4830    0.0230    0.0000 C   0  0
    7.6170    3.5230    0.0000 C   0  0
    9.3490    0.5230    0.0000 C   0  0
    9.3490    4.5230    0.0000 C   0  0
    7.6170    4.5230    0.0000 C   0  0
    8.4830    5.0230    0.0000 C   0  0
   10.2150    5.0230    0.0000 C   0  0
    3.6860   -1.7480    0.0000 H   0  0
    3.0370   -3.1960    0.0000 H   0  0
    5.6000   -4.3370    0.0000 H   0  0
    4.9410   -5.8170    0.0000 H   0  0
    5.3700    0.0370    0.0000 H   0  0
    4.6350    0.5150    0.0000 H   0  0
    4.1570   -0.2210    0.0000 H   0  0
    1.9350   -4.0990    0.0000 H   0  0
    1.3830   -4.7800    0.0000 H   0  0
    2.0650   -5.3320    0.0000 H   0  0
    2.6090   -6.0810    0.0000 H   0  0
    2.9230   -6.9000    0.0000 H   0  0
    3.7420   -6.5860    0.0000 H   0  0
    9.8860    1.8330    0.0000 H   0  0
    9.8860    3.2130    0.0000 H   0  0
    8.4830   -0.5970    0.0000 H   0  0
    7.0800    3.2130    0.0000 H   0  0
    9.8860    0.2130    0.0000 H   0  0
    7.0800    4.8330    0.0000 H   0  0
    8.4830    5.6430    0.0000 H   0  0
    6.2140    1.7130    0.0000 H   0  0
   10.7520    6.3330    0.0000 H   0  0
  1 12  2  0
  2 23  1  0
  2 54  1  0
  3 33  1  0
  3 55  1  0
  4 33  2  0
  5  6  1  0
  5  9  1  0
  5 12  1  0
  6 10  1  0
  6 34  1  0
  7  8  2  0
  7 13  1  0
  8 24  1  0
  9 14  1  0
  9 16  2  0
 10 13  2  0
 10 18  1  0
 11 14  2  0
 11 15  1  0
 11 19  1  0
 12 13  1  0
 14 35  1  0
 15 17  2  0
 15 20  1  0
 16 17  1  0
 16 36  1  0
 17 37  1  0
 18 38  1  0
 18 39  1  0
 18 40  1  0
 19 41  1  0
 19 42  1  0
 19 43  1  0
 20 44  1  0
 20 45  1  0
 20 46  1  0
 21 22  1  0
 21 23  2  0
 21 25  1  0
 22 26  2  0
 22 28  1  0
 23 24  1  0
 24 27  2  0
 25 29  2  0
 25 47  1  0
 26 30  1  0
 26 48  1  0
 27 29  1  0
 27 49  1  0
 28 31  2  0
 28 50  1  0
 29 51  1  0
 30 32  2  0
 30 33  1  0
 31 32  1  0
 31 52  1  0
 32 53  1  0
M  END
> <Name>
135449332

> <PUBCHEM_COMPOUND_CID>
135449332

> <Toxicity>
1

> <Data Set>
TrainingSet

$$$$
11949646
  SciTegic12242523262D

 58 61  0  0  1  0            999 V2000
    6.1810   -1.3040    0.0000 Cl  0  0
    7.0470    3.1960    0.0000 O   0  0
    4.4490    4.6960    0.0000 O   0  0
    4.4490    2.6960    0.0000 O   0  0
    6.1810    5.6960    0.0000 O   0  0
    8.7790    4.1960    0.0000 O   0  0
    2.0000   -5.1400    0.0000 O   0  0
    4.4490   -4.3040    0.0000 O   0  0
    5.3150    4.1960    0.0000 C   0  0  2  0  0  0
    5.3150    3.1960    0.0000 C   0  0  2  0  0  0
    6.1810    4.6960    0.0000 C   0  0  1  0  0  0
    6.1810    2.6960    0.0000 C   0  0  2  0  0  0
    7.0470    4.1960    0.0000 C   0  0  1  0  0  0
    6.1810    1.6960    0.0000 C   0  0
    7.9130    4.6960    0.0000 C   0  0
    5.3150    1.1960    0.0000 C   0  0
    7.0470    1.1960    0.0000 C   0  0
    5.3150    0.1960    0.0000 C   0  0
    3.5830   -4.8040    0.0000 C   0  0  1  0  0  0
    4.4490   -0.3040    0.0000 C   0  0
    7.0470    0.1960    0.0000 C   0  0
    3.4780   -5.7980    0.0000 C   0  0
    6.1810   -0.3040    0.0000 C   0  0
    2.6690   -4.3970    0.0000 C   0  0
    2.5000   -6.0060    0.0000 C   0  0
    4.4490   -1.3040    0.0000 C   0  0
    4.4490   -3.3040    0.0000 C   0  0
    5.3150   -1.8040    0.0000 C   0  0
    3.5830   -1.8040    0.0000 C   0  0
    5.3150   -2.8040    0.0000 C   0  0
    3.5830   -2.8040    0.0000 C   0  0
    5.3150    4.8160    0.0000 H   0  0
    5.3150    2.5760    0.0000 H   0  0
    6.7180    5.0060    0.0000 H   0  0
    6.7180    2.3860    0.0000 H   0  0
    7.5840    3.8860    0.0000 H   0  0
    8.3110    5.1710    0.0000 H   0  0
    7.5140    5.1710    0.0000 H   0  0
    4.4490    5.3160    0.0000 H   0  0
    3.9120    3.0060    0.0000 H   0  0
    4.7780    1.5060    0.0000 H   0  0
    6.7180    6.0060    0.0000 H   0  0
    7.5840    1.5060    0.0000 H   0  0
    4.1030   -5.1420    0.0000 H   0  0
    4.2370    0.2790    0.0000 H   0  0
    3.8380   -0.4110    0.0000 H   0  0
    7.5840   -0.1140    0.0000 H   0  0
    3.5430   -6.4150    0.0000 H   0  0
    4.0980   -5.7980    0.0000 H   0  0
    9.3160    4.5060    0.0000 H   0  0
    2.9790   -3.8600    0.0000 H   0  0
    2.1680   -4.0330    0.0000 H   0  0
    1.9340   -6.2580    0.0000 H   0  0
    2.6920   -6.5960    0.0000 H   0  0
    5.8520   -1.4940    0.0000 H   0  0
    3.0460   -1.4940    0.0000 H   0  0
    5.8520   -3.1140    0.0000 H   0  0
    3.0460   -3.1140    0.0000 H   0  0
  1 23  1  0
  2 12  1  0
  2 13  1  0
  9  3  1  1
  3 39  1  0
 10  4  1  6
  4 40  1  0
 11  5  1  6
  5 42  1  0
  6 15  1  0
  6 50  1  0
  7 24  1  0
  7 25  1  0
 19  8  1  1
  8 27  1  0
  9 10  1  0
  9 11  1  0
  9 32  1  6
 10 12  1  0
 10 33  1  1
 11 13  1  0
 11 34  1  1
 12 14  1  1
 12 35  1  6
 13 15  1  1
 13 36  1  6
 14 16  2  0
 14 17  1  0
 15 37  1  0
 15 38  1  0
 16 18  1  0
 16 41  1  0
 17 21  2  0
 17 43  1  0
 18 20  1  0
 18 23  2  0
 19 22  1  0
 19 24  1  0
 19 44  1  6
 20 26  1  0
 20 45  1  0
 20 46  1  0
 21 23  1  0
 21 47  1  0
 22 25  1  0
 22 48  1  0
 22 49  1  0
 24 51  1  0
 24 52  1  0
 25 53  1  0
 25 54  1  0
 26 28  2  0
 26 29  1  0
 27 30  2  0
 27 31  1  0
 28 30  1  0
 28 55  1  0
 29 31  2  0
 29 56  1  0
 30 57  1  0
 31 58  1  0
M  END
> <Name>
11949646

> <PUBCHEM_COMPOUND_CID>
11949646

> <Toxicity>
1

> <Data Set>
TrainingSet

$$$$
60877
  SciTegic12242523262D

 26 27  0  0  1  0            999 V2000
    3.2320   -1.8120    0.0000 S   0  0
    2.0000    2.7260    0.0000 F   0  0
    4.5410   -0.8610    0.0000 O   0  0
    4.4130   -3.5350    0.0000 O   0  0
    5.4640    0.7260    0.0000 O   0  0
    3.7320    0.7260    0.0000 N   0  0
    4.5980    2.2260    0.0000 N   0  0
    3.7320    3.7260    0.0000 N   0  0
    3.7320   -0.2740    0.0000 C   0  0  2  0  0  0
    2.9230   -0.8610    0.0000 C   0  0
    4.2320   -1.8120    0.0000 C   0  0  1  0  0  0
    4.8200   -2.6210    0.0000 C   0  0
    2.8660    1.2260    0.0000 C   0  0
    4.5980    1.2260    0.0000 C   0  0
    2.8660    2.2260    0.0000 C   0  0
    3.7320    2.7260    0.0000 C   0  0
    4.2840    0.0080    0.0000 H   0  0
    2.6130   -0.3240    0.0000 H   0  0
    2.3570   -1.1140    0.0000 H   0  0
    4.8440   -1.7150    0.0000 H   0  0
    5.3340   -2.9680    0.0000 H   0  0
    5.2500   -2.1750    0.0000 H   0  0
    2.3290    0.9160    0.0000 H   0  0
    4.7780   -4.0360    0.0000 H   0  0
    4.2690    4.0360    0.0000 H   0  0
    3.1950    4.0360    0.0000 H   0  0
  1 10  1  0
  1 11  1  0
  2 15  1  0
  3  9  1  0
  3 11  1  0
  4 12  1  0
  4 24  1  0
  5 14  2  0
  9  6  1  1
  6 13  1  0
  6 14  1  0
  7 14  1  0
  7 16  2  0
  8 16  1  0
  8 25  1  0
  8 26  1  0
  9 10  1  0
  9 17  1  6
 10 18  1  0
 10 19  1  0
 11 12  1  1
 11 20  1  6
 12 21  1  0
 12 22  1  0
 13 15  2  0
 13 23  1  0
 15 16  1  0
M  END
> <Name>
60877

> <PUBCHEM_COMPOUND_CID>
60877

> <Toxicity>
0

> <Data Set>
TestSet

$$$$
5388962
  SciTegic12242523262D

 55 56  0  0  1  0            999 V2000
    6.3300    1.4810    0.0000 O   0  0
    7.9670    3.9280    0.0000 O   0  0
    7.4320    2.2810    0.0000 O   0  0
    2.8660    1.4810    0.0000 O   0  0
    2.0000   -0.0190    0.0000 O   0  0
    5.4640    2.9810    0.0000 N   0  0
    4.5980    0.4810    0.0000 N   0  0
    6.2730    3.5680    0.0000 C   0  0  1  0  0  0
    5.9640    4.5190    0.0000 C   0  0
    4.9640    4.5190    0.0000 C   0  0
    4.6550    3.5680    0.0000 C   0  0
    5.4640    1.9810    0.0000 C   0  0
    4.5980    1.4810    0.0000 C   0  0  2  0  0  0
    7.2240    3.2590    0.0000 C   0  0
    3.7320   -0.0190    0.0000 C   0  0  1  0  0  0
    3.7320   -1.0190    0.0000 C   0  0
    3.7320    1.9810    0.0000 C   0  0
    2.8660   -1.5190    0.0000 C   0  0
    2.8660    0.4810    0.0000 C   0  0
    2.8660   -2.5190    0.0000 C   0  0
    3.7320   -3.0190    0.0000 C   0  0
    2.0000   -3.0190    0.0000 C   0  0
    2.0000    1.9810    0.0000 C   0  0
    3.7320   -4.0190    0.0000 C   0  0
    2.0000   -4.0190    0.0000 C   0  0
    2.8660   -4.5190    0.0000 C   0  0
    2.0000    2.9810    0.0000 C   0  0
    6.3700    2.9560    0.0000 H   0  0
    6.5710    4.6480    0.0000 H   0  0
    5.8990    5.1360    0.0000 H   0  0
    5.0290    5.1360    0.0000 H   0  0
    4.3580    4.6480    0.0000 H   0  0
    4.0890    3.8200    0.0000 H   0  0
    4.3450    3.0310    0.0000 H   0  0
    5.1350    1.1710    0.0000 H   0  0
    3.7320    0.6010    0.0000 H   0  0
    5.1350    0.1710    0.0000 H   0  0
    3.9440   -1.6020    0.0000 H   0  0
    4.3430   -0.9120    0.0000 H   0  0
    4.0420    2.5180    0.0000 H   0  0
    3.1950    2.2910    0.0000 H   0  0
    3.4220    1.4440    0.0000 H   0  0
    2.6540   -0.9370    0.0000 H   0  0
    2.2550   -1.6270    0.0000 H   0  0
    8.5570    3.7370    0.0000 H   0  0
    4.2690   -2.7090    0.0000 H   0  0
    1.4630   -2.7090    0.0000 H   0  0
    1.3890    2.0880    0.0000 H   0  0
    1.7880    1.3980    0.0000 H   0  0
    4.2690   -4.3290    0.0000 H   0  0
    1.4630   -4.3290    0.0000 H   0  0
    2.8660   -5.1390    0.0000 H   0  0
    2.6200    2.9810    0.0000 H   0  0
    2.0000    3.6010    0.0000 H   0  0
    1.3800    2.9810    0.0000 H   0  0
  1 12  2  0
  2 14  1  0
  2 45  1  0
  3 14  2  0
  4 19  1  0
  4 23  1  0
  5 19  2  0
  6  8  1  0
  6 11  1  0
  6 12  1  0
  7 13  1  0
  7 15  1  0
  7 37  1  0
  8  9  1  0
  8 14  1  1
  8 28  1  6
  9 10  1  0
  9 29  1  0
  9 30  1  0
 10 11  1  0
 10 31  1  0
 10 32  1  0
 11 33  1  0
 11 34  1  0
 13 12  1  1
 13 17  1  0
 13 35  1  6
 15 16  1  0
 15 19  1  1
 15 36  1  6
 16 18  1  0
 16 38  1  0
 16 39  1  0
 17 40  1  0
 17 41  1  0
 17 42  1  0
 18 20  1  0
 18 43  1  0
 18 44  1  0
 20 21  2  0
 20 22  1  0
 21 24  1  0
 21 46  1  0
 22 25  2  0
 22 47  1  0
 23 27  1  0
 23 48  1  0
 23 49  1  0
 24 26  2  0
 24 50  1  0
 25 26  1  0
 25 51  1  0
 26 52  1  0
 27 53  1  0
 27 54  1  0
 27 55  1  0
M  END
> <Name>
5388962

> <PUBCHEM_COMPOUND_CID>
5388962

> <Toxicity>
0

> <Data Set>
TestSet

$$$$
135398508
  SciTegic12242523262D

 35 37  0  0  1  0            999 V2000
    6.0870    2.8210    0.0000 O   0  0
    8.0520    3.1400    0.0000 O   0  0
    4.2690   -3.5040    0.0000 O   0  0
    6.0810   -0.6990    0.0000 N   0  0
    6.0810   -2.3080    0.0000 N   0  0
    4.2690   -0.5040    0.0000 N   0  0
    3.4030   -2.0040    0.0000 N   0  0
    2.5370   -0.5040    0.0000 N   0  0
    6.3920    0.2520    0.0000 C   0  0  1  0  0  0
    7.3450    1.5590    0.0000 C   0  0  2  0  0  0
    6.3950    1.8700    0.0000 C   0  0  2  0  0  0
    5.8060    1.0620    0.0000 C   0  0
    7.3440    0.5590    0.0000 C   0  0
    8.1550    2.1450    0.0000 C   0  0
    5.1350   -1.0040    0.0000 C   0  0
    8.1520   -0.0300    0.0000 C   0  0
    6.6650   -1.5040    0.0000 C   0  0
    5.1350   -2.0040    0.0000 C   0  0
    4.2690   -2.5040    0.0000 C   0  0
    3.4030   -1.0040    0.0000 C   0  0
    5.7790    0.1560    0.0000 H   0  0
    7.2490    2.1720    0.0000 H   0  0
    5.7820    1.9680    0.0000 H   0  0
    5.3460    1.4770    0.0000 H   0  0
    5.3440    0.6480    0.0000 H   0  0
    8.4260    1.5880    0.0000 H   0  0
    8.7520    2.3150    0.0000 H   0  0
    8.0860   -0.6470    0.0000 H   0  0
    8.7180    0.2210    0.0000 H   0  0
    5.4810    2.9510    0.0000 H   0  0
    7.2850   -1.5040    0.0000 H   0  0
    8.5550    3.5040    0.0000 H   0  0
    2.8660   -2.3140    0.0000 H   0  0
    2.0000   -0.8140    0.0000 H   0  0
    2.5370    0.1160    0.0000 H   0  0
 11  1  1  6
  1 30  1  0
  2 14  1  0
  2 32  1  0
  3 19  2  0
  9  4  1  1
  4 15  1  0
  4 17  1  0
  5 17  2  0
  5 18  1  0
  6 15  1  0
  6 20  2  0
  7 19  1  0
  7 20  1  0
  7 33  1  0
  8 20  1  0
  8 34  1  0
  8 35  1  0
  9 12  1  0
  9 13  1  0
  9 21  1  6
 10 11  1  0
 10 13  1  0
 10 14  1  1
 10 22  1  6
 11 12  1  0
 11 23  1  1
 12 24  1  0
 12 25  1  0
 13 16  2  0
 14 26  1  0
 14 27  1  0
 15 18  2  0
 16 28  1  0
 16 29  1  0
 17 31  1  0
 18 19  1  0
M  END
> <Name>
135398508

> <PUBCHEM_COMPOUND_CID>
135398508

> <Toxicity>
1

> <Data Set>
TrainingSet

$$$$
9294
  SciTegic12242523262D

 27 27  0  0  1  0            999 V2000
    2.0000    1.0000    0.0000 O   0  0
    3.7320    2.0000    0.0000 N   0  0
    3.7320    1.0000    0.0000 C   0  0  2  0  0  0
    2.8660    0.5000    0.0000 C   0  0  1  0  0  0
    2.8660   -0.5000    0.0000 C   0  0
    4.5980    0.5000    0.0000 C   0  0
    2.0000   -1.0000    0.0000 C   0  0
    3.7320   -1.0000    0.0000 C   0  0
    4.5980    2.5000    0.0000 C   0  0
    2.0000   -2.0000    0.0000 C   0  0
    3.7320   -2.0000    0.0000 C   0  0
    2.8660   -2.5000    0.0000 C   0  0
    4.2690    1.3100    0.0000 H   0  0
    2.8660    1.1200    0.0000 H   0  0
    4.2880   -0.0370    0.0000 H   0  0
    5.1350    0.1900    0.0000 H   0  0
    4.9080    1.0370    0.0000 H   0  0
    3.1950    2.3100    0.0000 H   0  0
    1.4630   -0.6900    0.0000 H   0  0
    4.2690   -0.6900    0.0000 H   0  0
    2.0000    1.6200    0.0000 H   0  0
    4.9080    1.9630    0.0000 H   0  0
    5.1350    2.8100    0.0000 H   0  0
    4.2880    3.0370    0.0000 H   0  0
    1.4630   -2.3100    0.0000 H   0  0
    4.2690   -2.3100    0.0000 H   0  0
    2.8660   -3.1200    0.0000 H   0  0
  4  1  1  1
  1 21  1  0
  2  3  1  0
  2  9  1  0
  2 18  1  0
  3  4  1  0
  3  6  1  1
  3 13  1  6
  4  5  1  0
  4 14  1  6
  5  7  2  0
  5  8  1  0
  6 15  1  0
  6 16  1  0
  6 17  1  0
  7 10  1  0
  7 19  1  0
  8 11  2  0
  8 20  1  0
  9 22  1  0
  9 23  1  0
  9 24  1  0
 10 12  2  0
 10 25  1  0
 11 12  1  0
 11 26  1  0
 12 27  1  0
M  END
> <Name>
9294

> <PUBCHEM_COMPOUND_CID>
9294

> <Toxicity>
1

> <Data Set>
TrainingSet

$$$$
5816
  SciTegic12242523262D

 26 26  0  0  1  0            999 V2000
    3.4030    1.6550    0.0000 O   0  0
    2.5370   -1.8450    0.0000 O   0  0
    4.2690   -2.8450    0.0000 O   0  0
    5.1350    2.6550    0.0000 N   0  0
    4.2690    1.1550    0.0000 C   0  0  2  0  0  0
    4.2690    0.1550    0.0000 C   0  0
    5.1350    1.6550    0.0000 C   0  0
    3.4030   -0.3450    0.0000 C   0  0
    5.1350   -0.3450    0.0000 C   0  0
    3.4030   -1.3450    0.0000 C   0  0
    5.1350   -1.3450    0.0000 C   0  0
    4.2690   -1.8450    0.0000 C   0  0
    6.0010    3.1550    0.0000 C   0  0
    4.2690    1.7750    0.0000 H   0  0
    5.3470    1.0720    0.0000 H   0  0
    5.7460    1.7630    0.0000 H   0  0
    2.8660   -0.0350    0.0000 H   0  0
    5.6720   -0.0350    0.0000 H   0  0
    4.5980    2.9650    0.0000 H   0  0
    5.6720   -1.6550    0.0000 H   0  0
    3.4030    2.2750    0.0000 H   0  0
    6.3110    2.6180    0.0000 H   0  0
    6.5380    3.4650    0.0000 H   0  0
    5.6910    3.6920    0.0000 H   0  0
    2.0000   -1.5350    0.0000 H   0  0
    4.8060   -3.1550    0.0000 H   0  0
  1  5  1  0
  1 21  1  0
  2 10  1  0
  2 25  1  0
  3 12  1  0
  3 26  1  0
  4  7  1  0
  4 13  1  0
  4 19  1  0
  5  6  1  0
  5  7  1  1
  5 14  1  6
  6  8  2  0
  6  9  1  0
  7 15  1  0
  7 16  1  0
  8 10  1  0
  8 17  1  0
  9 11  2  0
  9 18  1  0
 10 12  2  0
 11 12  1  0
 11 20  1  0
 13 22  1  0
 13 23  1  0
 13 24  1  0
M  END
> <Name>
5816

> <PUBCHEM_COMPOUND_CID>
5816

> <Toxicity>
0

> <Data Set>
TrainingSet

$$$$
443872
  SciTegic12242523262D

 60 65  0  0  1  0            999 V2000
    3.3020   -0.6280    0.0000 O   0  0
    3.3830    2.7420    0.0000 O   0  0
    7.6760   -0.1140    0.0000 O   0  0
    6.7930    1.3760    0.0000 O   0  0
    2.0000    3.8660    0.0000 O   0  0
    4.1150   -4.3240    0.0000 O   0  0
    4.1680   -0.1270    0.0000 C   0  0  1  0  0  0
    5.0340    0.3730    0.0000 C   0  0  2  0  0  0
    4.1680    1.8730    0.0000 C   0  0  2  0  0  0
    5.0340    1.3730    0.0000 C   0  0  1  0  0  0
    3.3020    0.3730    0.0000 C   0  0  1  0  0  0
    4.1520   -1.1690    0.0000 C   0  0  2  0  0  0
    3.3020    1.3730    0.0000 C   0  0
    4.3780    2.8450    0.0000 C   0  0  2  0  0  0
    5.9440   -0.1340    0.0000 C   0  0  1  0  0  0
    5.7720    2.0400    0.0000 C   0  0
    5.3660    2.9480    0.0000 C   0  0
    5.0500   -1.6960    0.0000 C   0  0
    5.9520   -1.1760    0.0000 C   0  0
    3.1840    2.0460    0.0000 C   0  0
    3.2000   -1.6890    0.0000 C   0  0
    4.5870    3.8220    0.0000 C   0  0
    3.1520   -1.1610    0.0000 C   0  0
    6.8050    0.3760    0.0000 C   0  0
    3.1840   -2.7740    0.0000 C   0  0
    3.7220    4.3240    0.0000 C   0  0
    5.0590   -2.7810    0.0000 C   0  0
    2.9780    3.6560    0.0000 C   0  0
    4.1190   -3.3240    0.0000 C   0  0
    8.5370    0.3960    0.0000 C   0  0
    5.7670    0.8040    0.0000 H   0  0
    5.8110    1.0280    0.0000 H   0  0
    2.4520    0.3730    0.0000 H   0  0
    3.0900    1.9550    0.0000 H   0  0
    2.6920    1.2650    0.0000 H   0  0
    6.4840   -0.4390    0.0000 H   0  0
    6.1370    1.5390    0.0000 H   0  0
    6.3080    2.3510    0.0000 H   0  0
    5.9560    3.1390    0.0000 H   0  0
    5.2380    3.5540    0.0000 H   0  0
    6.1660   -1.7580    0.0000 H   0  0
    6.5620   -1.0650    0.0000 H   0  0
    3.2910    2.6570    0.0000 H   0  0
    2.5730    2.1540    0.0000 H   0  0
    3.0760    1.4360    0.0000 H   0  0
    3.0000   -1.1020    0.0000 H   0  0
    2.5880   -1.7860    0.0000 H   0  0
    5.1770    3.6300    0.0000 H   0  0
    4.8400    4.3880    0.0000 H   0  0
    3.1570   -0.5410    0.0000 H   0  0
    2.5320   -1.1560    0.0000 H   0  0
    3.1480   -1.7810    0.0000 H   0  0
    2.5750   -2.6590    0.0000 H   0  0
    2.9660   -3.3550    0.0000 H   0  0
    4.0870    4.8250    0.0000 H   0  0
    3.2620    4.7400    0.0000 H   0  0
    5.5970   -3.0890    0.0000 H   0  0
    8.8530   -0.1370    0.0000 H   0  0
    9.0700    0.7120    0.0000 H   0  0
    8.2200    0.9290    0.0000 H   0  0
  7  1  1  6
  1 11  1  0
 14  2  1  1
  2 28  1  0
  3 24  1  0
  3 30  1  0
  4 24  2  0
  5 28  2  0
  6 29  2  0
  7  8  1  0
  7 11  1  0
  7 12  1  0
  8 10  1  0
  8 15  1  0
  8 31  1  1
  9 10  1  0
  9 13  1  0
  9 14  1  0
  9 20  1  1
 10 16  1  0
 10 32  1  6
 11 13  1  0
 11 33  1  1
 12 18  1  0
 12 21  1  0
 12 23  1  1
 13 34  1  0
 13 35  1  0
 14 17  1  0
 14 22  1  6
 15 19  1  0
 15 24  1  6
 15 36  1  1
 16 17  1  0
 16 37  1  0
 16 38  1  0
 17 39  1  0
 17 40  1  0
 18 19  1  0
 18 27  2  0
 19 41  1  0
 19 42  1  0
 20 43  1  0
 20 44  1  0
 20 45  1  0
 21 25  1  0
 21 46  1  0
 21 47  1  0
 22 26  1  0
 22 48  1  0
 22 49  1  0
 23 50  1  0
 23 51  1  0
 23 52  1  0
 25 29  1  0
 25 53  1  0
 25 54  1  0
 26 28  1  0
 26 55  1  0
 26 56  1  0
 27 29  1  0
 27 57  1  0
 30 58  1  0
 30 59  1  0
 30 60  1  0
M  END
> <Name>
443872

> <PUBCHEM_COMPOUND_CID>
443872

> <Toxicity>
0

> <Data Set>
TrainingSet

$$$$
8223
  SciTegic12242523262D

 78 85  0  0  1  0            999 V2000
    4.3930    0.5770    0.0000 O   0  0
    3.3710    1.1550    0.0000 O   0  0
    4.5850    4.5500    0.0000 O   0  0
    6.8550    1.3440    0.0000 O   0  0
    5.3740   -1.6250    0.0000 O   0  0
    3.5720    3.1450    0.0000 N   0  0
    5.1950    1.9750    0.0000 N   0  0
    6.2340   -0.1220    0.0000 N   0  0
    8.9060   -1.6250    0.0000 N   0  0
    9.8940   -5.8150    0.0000 N   0  0
    3.4720    2.1500    0.0000 C   0  0  2  0  0  0
    4.2830    1.5650    0.0000 C   0  0  2  0  0  0
    2.5000    1.9420    0.0000 C   0  0
    5.2960    2.9700    0.0000 C   0  0  2  0  0  0
    2.6620    3.5430    0.0000 C   0  0
    2.0000    2.8010    0.0000 C   0  0
    5.3670    0.3750    0.0000 C   0  0  1  0  0  0
    4.4840    3.5550    0.0000 C   0  0
    5.8610    1.2380    0.0000 C   0  0
    6.2080    3.3810    0.0000 C   0  0
    5.1620   -0.6040    0.0000 C   0  0
    7.1060   -1.6180    0.0000 C   0  0  1  0  0  0
    8.8900   -2.6670    0.0000 C   0  0  1  0  0  0
    6.2380   -1.1220    0.0000 C   0  0
    6.3080    4.3760    0.0000 C   0  0
    8.0080   -1.0970    0.0000 C   0  0
    8.0240   -3.1670    0.0000 C   0  0
    9.7560   -3.1670    0.0000 C   0  0
    7.1140   -2.6600    0.0000 C   0  0
    8.0240   -4.1670    0.0000 C   0  0
    9.7560   -4.1670    0.0000 C   0  0
    8.8900   -4.6670    0.0000 C   0  0
    9.7780   -1.1350    0.0000 C   0  0
    5.4970    4.9600    0.0000 C   0  0
    7.2200    4.7860    0.0000 C   0  0
    8.9060   -5.7080    0.0000 C   0  0
   10.3740   -4.9450    0.0000 C   0  0
    7.1140   -4.6740    0.0000 C   0  0
    8.0080   -6.2360    0.0000 C   0  0
    5.5980    5.9550    0.0000 C   0  0
    7.3210    5.7810    0.0000 C   0  0
    7.1060   -5.7150    0.0000 C   0  0
    6.5100    6.3650    0.0000 C   0  0
    4.2470    2.4990    0.0000 H   0  0
    1.9340    1.6880    0.0000 H   0  0
    2.6920    1.3530    0.0000 H   0  0
    5.7990    2.6080    0.0000 H   0  0
    2.9680    4.0820    0.0000 H   0  0
    2.1580    3.9050    0.0000 H   0  0
    1.5830    3.2600    0.0000 H   0  0
    1.5000    2.4350    0.0000 H   0  0
    6.3600    2.7800    0.0000 H   0  0
    6.8260    3.4260    0.0000 H   0  0
    3.3090    0.5380    0.0000 H   0  0
    6.7700    0.1910    0.0000 H   0  0
    4.5560   -0.4770    0.0000 H   0  0
    5.0360   -1.2110    0.0000 H   0  0
    5.7690   -0.7300    0.0000 H   0  0
    6.5710   -1.9310    0.0000 H   0  0
    9.6300   -2.2470    0.0000 H   0  0
    8.4090   -0.6240    0.0000 H   0  0
    7.6110   -0.6210    0.0000 H   0  0
   10.3670   -3.2740    0.0000 H   0  0
    9.9680   -2.5840    0.0000 H   0  0
    6.5810   -2.9760    0.0000 H   0  0
   10.0820   -1.6760    0.0000 H   0  0
   10.3190   -0.8310    0.0000 H   0  0
    9.4740   -0.5950    0.0000 H   0  0
    4.9320    4.7060    0.0000 H   0  0
    7.7230    4.4230    0.0000 H   0  0
   10.9920   -4.8930    0.0000 H   0  0
    6.5810   -4.3570    0.0000 H   0  0
   10.1800   -6.3650    0.0000 H   0  0
    8.0110   -6.8560    0.0000 H   0  0
    5.0950    6.3180    0.0000 H   0  0
    7.8860    6.0350    0.0000 H   0  0
    6.5680   -6.0230    0.0000 H   0  0
    6.5720    6.9820    0.0000 H   0  0
  1 12  1  0
  1 17  1  0
 12  2  1  6
  2 54  1  0
  3 18  2  0
  4 19  2  0
  5 24  2  0
  6 11  1  0
  6 15  1  0
  6 18  1  0
  7 12  1  0
  7 14  1  0
  7 19  1  0
 17  8  1  6
  8 24  1  0
  8 55  1  0
  9 23  1  0
  9 26  1  0
  9 33  1  0
 10 36  1  0
 10 37  1  0
 10 73  1  0
 11 12  1  0
 11 13  1  0
 11 44  1  1
 13 16  1  0
 13 45  1  0
 13 46  1  0
 14 18  1  0
 14 20  1  6
 14 47  1  1
 15 16  1  0
 15 48  1  0
 15 49  1  0
 16 50  1  0
 16 51  1  0
 17 19  1  0
 17 21  1  1
 20 25  1  0
 20 52  1  0
 20 53  1  0
 21 56  1  0
 21 57  1  0
 21 58  1  0
 22 24  1  1
 22 26  1  0
 22 29  1  0
 22 59  1  6
 23 27  1  0
 23 28  1  0
 23 60  1  1
 25 34  2  0
 25 35  1  0
 26 61  1  0
 26 62  1  0
 27 29  2  0
 27 30  1  0
 28 31  1  0
 28 63  1  0
 28 64  1  0
 29 65  1  0
 30 32  2  0
 30 38  1  0
 31 32  1  0
 31 37  2  0
 32 36  1  0
 33 66  1  0
 33 67  1  0
 33 68  1  0
 34 40  1  0
 34 69  1  0
 35 41  2  0
 35 70  1  0
 36 39  2  0
 37 71  1  0
 38 42  2  0
 38 72  1  0
 39 42  1  0
 39 74  1  0
 40 43  2  0
 40 75  1  0
 41 43  1  0
 41 76  1  0
 42 77  1  0
 43 78  1  0
M  END
> <Name>
8223

> <PUBCHEM_COMPOUND_CID>
8223

> <Toxicity>
1

> <Data Set>
TrainingSet

$$$$
176870
  SciTegic12242523262D

 52 54  0  0  0  0            999 V2000
    5.4640    0.3370    0.0000 O   0  0
    5.4640    2.3370    0.0000 O   0  0
    2.8660    0.8370    0.0000 O   0  0
    4.5980    4.8370    0.0000 O   0  0
    8.9450   -0.6970    0.0000 N   0  0
    8.9560    2.3720    0.0000 N   0  0
    9.8620    0.8160    0.0000 N   0  0
    8.0620    0.8370    0.0000 C   0  0
    8.0620    1.8370    0.0000 C   0  0
    6.3300    0.8370    0.0000 C   0  0
    6.3300    1.8370    0.0000 C   0  0
    7.1960    0.3370    0.0000 C   0  0
    8.9560    0.3020    0.0000 C   0  0
    7.1960    2.3370    0.0000 C   0  0
    4.5980    0.8370    0.0000 C   0  0
    9.8050   -1.2070    0.0000 C   0  0
    5.4640    3.3370    0.0000 C   0  0
    9.8620    1.8580    0.0000 C   0  0
    3.7320    0.3370    0.0000 C   0  0
    4.5980    3.8370    0.0000 C   0  0
    9.7930   -2.2070    0.0000 C   0  0
   10.6760   -0.7180    0.0000 C   0  0
   10.6530   -2.7170    0.0000 C   0  0
   11.5370   -1.2280    0.0000 C   0  0
   11.5250   -2.2270    0.0000 C   0  0
    2.0000    0.3370    0.0000 C   0  0
    3.7320    5.3370    0.0000 C   0  0
   10.6420   -3.7170    0.0000 C   0  0
   10.6300   -4.7170    0.0000 C   0  0
    7.1960   -0.2830    0.0000 H   0  0
    7.1960    2.9570    0.0000 H   0  0
    8.4040   -1.0010    0.0000 H   0  0
    4.9970    1.3120    0.0000 H   0  0
    4.2000    1.3120    0.0000 H   0  0
    6.0750    3.2300    0.0000 H   0  0
    5.6760    3.9200    0.0000 H   0  0
   10.3980    2.1700    0.0000 H   0  0
    3.3340   -0.1380    0.0000 H   0  0
    4.1310   -0.1380    0.0000 H   0  0
    3.9880    3.9450    0.0000 H   0  0
    4.3860    3.2550    0.0000 H   0  0
    9.2530   -2.5110    0.0000 H   0  0
   10.6840   -0.0980    0.0000 H   0  0
   12.0770   -0.9240    0.0000 H   0  0
   12.0580   -2.5440    0.0000 H   0  0
    1.6900    0.8740    0.0000 H   0  0
    1.4630    0.0270    0.0000 H   0  0
    2.3100   -0.2000    0.0000 H   0  0
    4.0420    5.8740    0.0000 H   0  0
    3.1950    5.6470    0.0000 H   0  0
    3.4220    4.8000    0.0000 H   0  0
   10.6230   -5.3370    0.0000 H   0  0
  1 10  1  0
  1 15  1  0
  2 11  1  0
  2 17  1  0
  3 19  1  0
  3 26  1  0
  4 20  1  0
  4 27  1  0
  5 13  1  0
  5 16  1  0
  5 32  1  0
  6  9  1  0
  6 18  2  0
  7 13  2  0
  7 18  1  0
  8  9  1  0
  8 12  2  0
  8 13  1  0
  9 14  2  0
 10 11  2  0
 10 12  1  0
 11 14  1  0
 12 30  1  0
 14 31  1  0
 15 19  1  0
 15 33  1  0
 15 34  1  0
 16 21  2  0
 16 22  1  0
 17 20  1  0
 17 35  1  0
 17 36  1  0
 18 37  1  0
 19 38  1  0
 19 39  1  0
 20 40  1  0
 20 41  1  0
 21 23  1  0
 21 42  1  0
 22 24  2  0
 22 43  1  0
 23 25  2  0
 23 28  1  0
 24 25  1  0
 24 44  1  0
 25 45  1  0
 26 46  1  0
 26 47  1  0
 26 48  1  0
 27 49  1  0
 27 50  1  0
 27 51  1  0
 28 29  3  0
 29 52  1  0
M  END
> <Name>
176870

> <PUBCHEM_COMPOUND_CID>
176870

> <Toxicity>
1

> <Data Set>
TrainingSet

$$$$
150610
  SciTegic12242523262D

 58 61  0  0  1  0            999 V2000
    7.6570   -2.9980    0.0000 S   0  0
    3.4040   -4.2110    0.0000 O   0  0
    2.4380   -2.0430    0.0000 O   0  0
    7.3560   -4.9660    0.0000 O   0  0
    5.7090   -5.5020    0.0000 O   0  0
    7.4750    0.8520    0.0000 O   0  0
   10.5020    5.1920    0.0000 O   0  0
   11.5200    3.7900    0.0000 O   0  0
    5.1180   -3.4980    0.0000 N   0  0
    9.3590   -1.0500    0.0000 N   0  0
    9.1980    1.0320    0.0000 N   0  0
    5.1180   -2.4980    0.0000 C   0  0  1  0  0  0
    4.1100   -2.4940    0.0000 C   0  0  2  0  0  0
    6.0690   -2.1900    0.0000 C   0  0  2  0  0  0
    4.1100   -3.5030    0.0000 C   0  0
    6.6570   -2.9980    0.0000 C   0  0
    6.0690   -3.8080    0.0000 C   0  0
    3.4040   -1.7860    0.0000 C   0  0  1  0  0  0
    6.3780   -1.2380    0.0000 C   0  0
    8.1570   -2.1320    0.0000 C   0  0  1  0  0  0
    3.6650   -0.8200    0.0000 C   0  0
    7.7500   -1.2190    0.0000 C   0  0
    9.1510   -2.0280    0.0000 C   0  0
    6.3780   -4.7580    0.0000 C   0  0
    8.4930   -0.5500    0.0000 C   0  0  1  0  0  0
    8.3890    0.4450    0.0000 C   0  0
    9.0930    2.0270    0.0000 C   0  0
    9.9020    2.6150    0.0000 C   0  0
    8.1800    2.4340    0.0000 C   0  0
    9.7980    3.6090    0.0000 C   0  0
    8.0750    3.4280    0.0000 C   0  0
    8.8840    4.0160    0.0000 C   0  0
   10.6070    4.1970    0.0000 C   0  0
    4.9870   -1.6590    0.0000 H   0  0
    3.3240   -2.8190    0.0000 H   0  0
    5.6300   -1.7510    0.0000 H   0  0
    2.9660   -1.3460    0.0000 H   0  0
    6.9680   -1.4300    0.0000 H   0  0
    6.5700   -0.6490    0.0000 H   0  0
    5.7880   -1.0470    0.0000 H   0  0
    7.5380   -2.1000    0.0000 H   0  0
    4.2630   -0.9820    0.0000 H   0  0
    3.8260   -0.2220    0.0000 H   0  0
    3.0660   -0.6590    0.0000 H   0  0
    7.3860   -0.7170    0.0000 H   0  0
    7.2130   -1.5290    0.0000 H   0  0
    9.1510   -2.6480    0.0000 H   0  0
    9.7680   -2.0930    0.0000 H   0  0
    9.0130   -0.2120    0.0000 H   0  0
    9.9260   -0.7980    0.0000 H   0  0
    2.0000   -1.6030    0.0000 H   0  0
    7.5480   -5.5560    0.0000 H   0  0
    9.7640    0.7800    0.0000 H   0  0
   10.4680    2.3630    0.0000 H   0  0
    7.6780    2.0690    0.0000 H   0  0
    7.5090    3.6800    0.0000 H   0  0
    8.8190    4.6330    0.0000 H   0  0
   11.0040    5.5560    0.0000 H   0  0
  1 16  1  0
 20  1  1  1
  2 15  2  0
  3 18  1  0
  3 51  1  0
  4 24  1  0
  4 52  1  0
  5 24  2  0
  6 26  2  0
  7 33  1  0
  7 58  1  0
  8 33  2  0
  9 12  1  0
  9 15  1  0
  9 17  1  0
 10 23  1  0
 10 25  1  0
 10 50  1  0
 11 26  1  0
 11 27  1  0
 11 53  1  0
 12 13  1  0
 12 14  1  0
 12 34  1  6
 13 15  1  0
 13 18  1  0
 13 35  1  1
 14 16  1  0
 14 19  1  1
 14 36  1  6
 16 17  2  0
 17 24  1  0
 18 21  1  6
 18 37  1  1
 19 38  1  0
 19 39  1  0
 19 40  1  0
 20 22  1  0
 20 23  1  0
 20 41  1  6
 21 42  1  0
 21 43  1  0
 21 44  1  0
 22 25  1  0
 22 45  1  0
 22 46  1  0
 23 47  1  0
 23 48  1  0
 25 26  1  1
 25 49  1  6
 27 28  1  0
 27 29  2  0
 28 30  2  0
 28 54  1  0
 29 31  1  0
 29 55  1  0
 30 32  1  0
 30 33  1  0
 31 32  2  0
 31 56  1  0
 32 57  1  0
M  END
> <Name>
150610

> <PUBCHEM_COMPOUND_CID>
150610

> <Toxicity>
0

> <Data Set>
TestSet

$$$$
44814423
  SciTegic12242523262D

 55 58  0  0  1  0            999 V2000
    6.5000   -1.4900    0.0000 Cl  0  0
    4.9870    4.3230    0.0000 O   0  0
    6.8640    1.8650    0.0000 O   0  0
    3.0750    3.8170    0.0000 O   0  0
    3.7740    0.6260    0.0000 O   0  0
    2.4750    1.7260    0.0000 O   0  0
    6.9480    4.5650    0.0000 O   0  0
    8.9500   -3.9390    0.0000 O   0  0
    5.7240    3.3400    0.0000 C   0  0  2  0  0  0
    5.4650    2.3740    0.0000 C   0  0  2  0  0  0
    3.6900    3.0290    0.0000 C   0  0  2  0  0  0
    4.2440    1.5080    0.0000 C   0  0  1  0  0  0
    3.4150    2.0680    0.0000 C   0  0  1  0  0  0
    7.1220    2.8310    0.0000 C   0  0
    5.9820    4.3060    0.0000 C   0  0
    5.7240    1.4080    0.0000 C   0  0
    6.6900    1.1500    0.0000 C   0  0
    5.0160    0.7010    0.0000 C   0  0
    6.9480    0.1840    0.0000 C   0  0
    5.2750   -0.2650    0.0000 C   0  0
    6.2410   -0.5240    0.0000 C   0  0
    7.9140   -0.0750    0.0000 C   0  0
    8.1730   -1.0410    0.0000 C   0  0
    9.1390   -1.3000    0.0000 C   0  0
    7.4660   -1.7480    0.0000 C   0  0
    9.3980   -2.2660    0.0000 C   0  0
    7.7250   -2.7140    0.0000 C   0  0
    8.6910   -2.9730    0.0000 C   0  0
    9.9150   -4.1980    0.0000 C   0  0
   10.1740   -5.1640    0.0000 C   0  0
    3.0820    2.9110    0.0000 H   0  0
    4.7090    1.0990    0.0000 H   0  0
    2.9610    2.4910    0.0000 H   0  0
    7.7160    2.6540    0.0000 H   0  0
    7.3170    3.4200    0.0000 H   0  0
    5.9280    4.9240    0.0000 H   0  0
    5.3650    4.3600    0.0000 H   0  0
    2.4610    3.7310    0.0000 H   0  0
    4.1030    0.1000    0.0000 H   0  0
    2.0000    2.1240    0.0000 H   0  0
    7.1280    1.5880    0.0000 H   0  0
    4.4180    0.8620    0.0000 H   0  0
    7.1090    5.1640    0.0000 H   0  0
    4.8370   -0.7030    0.0000 H   0  0
    8.5320   -0.0210    0.0000 H   0  0
    7.9680    0.5420    0.0000 H   0  0
    9.5770   -0.8620    0.0000 H   0  0
    6.8670   -1.5880    0.0000 H   0  0
    9.9970   -2.4260    0.0000 H   0  0
    7.2860   -3.1530    0.0000 H   0  0
   10.5330   -4.1440    0.0000 H   0  0
    9.9700   -3.5800    0.0000 H   0  0
    9.5750   -5.3240    0.0000 H   0  0
   10.3350   -5.7630    0.0000 H   0  0
   10.7730   -5.0030    0.0000 H   0  0
  1 21  1  0
  2  9  1  0
  2 10  1  0
  3 10  1  0
  3 14  1  0
 11  4  1  6
  4 38  1  0
 12  5  1  6
  5 39  1  0
 13  6  1  1
  6 40  1  0
  7 15  1  0
  7 43  1  0
  8 28  1  0
  8 29  1  0
  9 11  1  0
  9 14  1  0
  9 15  1  6
 10 12  1  0
 10 16  1  1
 11 13  1  0
 11 31  1  1
 12 13  1  0
 12 32  1  1
 13 33  1  6
 14 34  1  0
 14 35  1  0
 15 36  1  0
 15 37  1  0
 16 17  2  0
 16 18  1  0
 17 19  1  0
 17 41  1  0
 18 20  2  0
 18 42  1  0
 19 21  2  0
 19 22  1  0
 20 21  1  0
 20 44  1  0
 22 23  1  0
 22 45  1  0
 22 46  1  0
 23 24  1  0
 23 25  2  0
 24 26  2  0
 24 47  1  0
 25 27  1  0
 25 48  1  0
 26 28  1  0
 26 49  1  0
 27 28  2  0
 27 50  1  0
 29 30  1  0
 29 51  1  0
 29 52  1  0
 30 53  1  0
 30 54  1  0
 30 55  1  0
M  END
> <Name>
44814423

> <PUBCHEM_COMPOUND_CID>
44814423

> <Toxicity>
1

> <Data Set>
TrainingSet

$$$$
702
  SciTegic12242523262D

  9  8  0  0  0  0            999 V2000
    3.7320    0.2500    0.0000 O   0  0
    2.8660   -0.2500    0.0000 C   0  0
    2.0000    0.2500    0.0000 C   0  0
    2.4680   -0.7250    0.0000 H   0  0
    3.2650   -0.7250    0.0000 H   0  0
    2.3100    0.7870    0.0000 H   0  0
    1.4630    0.5600    0.0000 H   0  0
    1.6900   -0.2870    0.0000 H   0  0
    4.2690   -0.0600    0.0000 H   0  0
  1  2  1  0
  1  9  1  0
  2  3  1  0
  2  4  1  0
  2  5  1  0
  3  6  1  0
  3  7  1  0
  3  8  1  0
M  END
> <Name>
702

> <PUBCHEM_COMPOUND_CID>
702

> <Toxicity>
1

> <Data Set>
TrainingSet

$$$$
3291
  SciTegic12242523262D

 21 21  0  0  1  0            999 V2000
    5.5200   -0.8240    0.0000 O   0  0
    2.0000   -0.8240    0.0000 O   0  0
    3.7600   -1.1030    0.0000 N   0  0
    4.2600    0.4360    0.0000 C   0  0
    3.2600    0.4360    0.0000 C   0  0
    5.2110    0.7450    0.0000 C   0  0
    4.5690   -0.5150    0.0000 C   0  0
    4.2600    1.4360    0.0000 C   0  0
    2.9510   -0.5150    0.0000 C   0  0
    5.4190    1.7230    0.0000 C   0  0
    3.3250    1.0520    0.0000 H   0  0
    2.6540    0.5650    0.0000 H   0  0
    5.2970    0.1310    0.0000 H   0  0
    5.8310    0.7230    0.0000 H   0  0
    4.8800    1.4360    0.0000 H   0  0
    4.2600    2.0560    0.0000 H   0  0
    3.6400    1.4360    0.0000 H   0  0
    3.7600   -1.7230    0.0000 H   0  0
    6.0260    1.5940    0.0000 H   0  0
    5.5480    2.3300    0.0000 H   0  0
    4.8130    1.8520    0.0000 H   0  0
  1  7  2  0
  2  9  2  0
  3  7  1  0
  3  9  1  0
  3 18  1  0
  4  5  1  0
  4  6  1  0
  4  7  1  0
  4  8  1  0
  5  9  1  0
  5 11  1  0
  5 12  1  0
  6 10  1  0
  6 13  1  0
  6 14  1  0
  8 15  1  0
  8 16  1  0
  8 17  1  0
 10 19  1  0
 10 20  1  0
 10 21  1  0
M  END
> <Name>
3291

> <PUBCHEM_COMPOUND_CID>
3291

> <Toxicity>
1

> <Data Set>
TrainingSet

$$$$
36462
  SciTegic12242523262D

 74 80  0  0  1  0            999 V2000
    4.2690   -0.2850    0.0000 O   0  0
    7.1990    0.7900    0.0000 O   0  0
    5.1350    1.2150    0.0000 O   0  0
    4.2530    3.7570    0.0000 O   0  0
    8.5830   -0.3240    0.0000 O   0  0
    2.5370    0.7150    0.0000 O   0  0
    6.0530    3.7640    0.0000 O   0  0
    2.5370    2.7150    0.0000 O   0  0
    3.4490   -4.0280    0.0000 O   0  0
    4.9010   -4.8660    0.0000 O   0  0
   10.3310   -1.7850    0.0000 O   0  0
    8.5990   -4.7850    0.0000 O   0  0
   10.3310   -3.7850    0.0000 O   0  0
    6.0010   -0.2850    0.0000 C   0  0  1  0  0  0
    6.8670   -0.7850    0.0000 C   0  0  1  0  0  0
    5.1350   -0.7850    0.0000 C   0  0  1  0  0  0
    6.8670   -1.7850    0.0000 C   0  0  1  0  0  0
    5.1350   -1.7850    0.0000 C   0  0
    6.0010   -2.2850    0.0000 C   0  0
    6.2100    0.6870    0.0000 C   0  0
    7.6040   -0.1180    0.0000 C   0  0
    4.2690    0.7150    0.0000 C   0  0  2  0  0  0
    7.7330   -2.2850    0.0000 C   0  0
    3.4030    1.2150    0.0000 C   0  0  1  0  0  0
    4.2690    2.7150    0.0000 C   0  0  1  0  0  0
    3.4030    2.2150    0.0000 C   0  0  2  0  0  0
    5.1350    2.2150    0.0000 C   0  0  1  0  0  0
    4.2250   -2.2920    0.0000 C   0  0
    6.0170   -3.3260    0.0000 C   0  0
    6.0450    2.7220    0.0000 C   0  0
    4.2170   -3.3330    0.0000 C   0  0
    5.1190   -3.8540    0.0000 C   0  0
    7.7330   -3.2850    0.0000 C   0  0
    8.5990   -1.7850    0.0000 C   0  0
    5.1510    4.2850    0.0000 C   0  0  1  0  0  0
    9.4650   -2.2850    0.0000 C   0  0
    8.5990   -3.7850    0.0000 C   0  0
    3.8710   -4.9740    0.0000 C   0  0
    9.4650   -3.2850    0.0000 C   0  0
    5.1470    5.2850    0.0000 C   0  0
   11.1970   -2.2850    0.0000 C   0  0
    7.7330   -5.2850    0.0000 C   0  0
    5.3140    0.2160    0.0000 H   0  0
    7.6440   -1.1290    0.0000 H   0  0
    5.1350   -0.1650    0.0000 H   0  0
    6.8670   -2.4050    0.0000 H   0  0
    6.2110    1.3070    0.0000 H   0  0
    5.5940    0.7530    0.0000 H   0  0
    3.7320    0.4050    0.0000 H   0  0
    2.8660    1.5250    0.0000 H   0  0
    5.0020    3.1460    0.0000 H   0  0
    3.4030    2.8350    0.0000 H   0  0
    5.8680    1.7850    0.0000 H   0  0
    3.6920   -1.9750    0.0000 H   0  0
    6.5580   -3.6300    0.0000 H   0  0
    6.2500    2.1370    0.0000 H   0  0
    6.6570    2.8240    0.0000 H   0  0
    7.1960   -3.5950    0.0000 H   0  0
    8.5990   -1.1650    0.0000 H   0  0
    4.6120    4.5920    0.0000 H   0  0
    2.0000    1.0250    0.0000 H   0  0
    2.5370    3.3350    0.0000 H   0  0
    3.2820   -5.1650    0.0000 H   0  0
    4.0000   -5.5800    0.0000 H   0  0
    5.7670    5.2870    0.0000 H   0  0
    5.1450    5.9050    0.0000 H   0  0
    4.5270    5.2820    0.0000 H   0  0
   10.3310   -4.4050    0.0000 H   0  0
   10.8870   -2.8220    0.0000 H   0  0
   11.7340   -2.5950    0.0000 H   0  0
   11.5070   -1.7480    0.0000 H   0  0
    7.4230   -4.7480    0.0000 H   0  0
    7.1960   -5.5950    0.0000 H   0  0
    8.0430   -5.8220    0.0000 H   0  0
 16  1  1  1
 22  1  1  1
  2 20  1  0
  2 21  1  0
  3 22  1  0
  3 27  1  0
  4 25  1  0
  4 35  1  0
  5 21  2  0
 24  6  1  6
  6 61  1  0
  7 30  1  0
  7 35  1  0
 26  8  1  1
  8 62  1  0
  9 31  1  0
  9 38  1  0
 10 32  1  0
 10 38  1  0
 11 36  1  0
 11 41  1  0
 12 37  1  0
 12 42  1  0
 13 39  1  0
 13 68  1  0
 14 15  1  0
 14 16  1  0
 14 20  1  0
 14 43  1  6
 15 17  1  0
 15 21  1  0
 15 44  1  1
 16 18  1  0
 16 45  1  6
 17 19  1  0
 17 23  1  6
 17 46  1  1
 18 19  1  0
 18 28  2  0
 19 29  2  0
 20 47  1  0
 20 48  1  0
 22 24  1  0
 22 49  1  6
 23 33  1  0
 23 34  2  0
 24 26  1  0
 24 50  1  1
 25 26  1  0
 25 27  1  0
 25 51  1  1
 26 52  1  6
 27 30  1  0
 27 53  1  6
 28 31  1  0
 28 54  1  0
 29 32  1  0
 29 55  1  0
 30 56  1  0
 30 57  1  0
 31 32  2  0
 33 37  2  0
 33 58  1  0
 34 36  1  0
 34 59  1  0
 35 40  1  6
 35 60  1  1
 36 39  2  0
 37 39  1  0
 38 63  1  0
 38 64  1  0
 40 65  1  0
 40 66  1  0
 40 67  1  0
 41 69  1  0
 41 70  1  0
 41 71  1  0
 42 72  1  0
 42 73  1  0
 42 74  1  0
M  END
> <Name>
36462

> <PUBCHEM_COMPOUND_CID>
36462

> <Toxicity>
1

> <Data Set>
TestSet

$$$$
44623998
  SciTegic12242523262D

 59 63  0  0  1  0            999 V2000
    3.5480    2.3950    0.0000 F   0  0
    4.9610    2.3270    0.0000 F   0  0
    3.4800    0.9830    0.0000 F   0  0
    8.1910   -0.1440    0.0000 O   0  0
   15.9530   -1.1100    0.0000 O   0  0
   14.7920   -2.3950    0.0000 O   0  0
   12.1960    0.4830    0.0000 N   0  0
    3.6100   -0.2500    0.0000 C   0  0
   13.3080   -1.0550    0.0000 C   0  0  1  0  0  0
    2.8640    0.4170    0.0000 C   0  0
    3.2070   -1.1650    0.0000 C   0  0
   13.0000   -2.0000    0.0000 C   0  0
   12.5050   -0.4680    0.0000 C   0  0
   11.6960   -1.0560    0.0000 C   0  0
   12.0060   -2.0010    0.0000 C   0  0
    2.0000   -0.0870    0.0000 C   0  0
    2.2120   -1.0640    0.0000 C   0  0
    4.5870   -0.0380    0.0000 C   0  0
   10.8870   -0.4680    0.0000 C   0  0
   14.2590   -0.7470    0.0000 C   0  0
   11.1960    0.4830    0.0000 C   0  0
    4.8920    0.9140    0.0000 C   0  0
    9.8710   -0.7000    0.0000 C   0  0
    5.2590   -0.7780    0.0000 C   0  0
   10.5110    1.2680    0.0000 C   0  0
    9.1680    0.0680    0.0000 C   0  0
   15.0010   -1.4180    0.0000 C   0  0
    5.8700    1.1260    0.0000 C   0  0
    6.5420    0.3850    0.0000 C   0  0
    6.2360   -0.5670    0.0000 C   0  0
    9.4900    1.0590    0.0000 C   0  0
    4.2200    1.6550    0.0000 C   0  0
    7.5190    0.5970    0.0000 C   0  0
    3.7680    0.3500    0.0000 H   0  0
   13.7450   -1.4940    0.0000 H   0  0
    3.3230    0.8330    0.0000 H   0  0
    2.4980    0.9170    0.0000 H   0  0
    3.0800   -1.7720    0.0000 H   0  0
    3.7970   -1.3540    0.0000 H   0  0
   12.9350   -2.6160    0.0000 H   0  0
   13.6060   -2.1290    0.0000 H   0  0
   11.3990   -2.1310    0.0000 H   0  0
   12.0710   -2.6170    0.0000 H   0  0
    1.7460    0.4790    0.0000 H   0  0
    1.4110   -0.2800    0.0000 H   0  0
    1.5950   -1.1310    0.0000 H   0  0
    2.2140   -1.6840    0.0000 H   0  0
   14.7480   -0.3660    0.0000 H   0  0
   13.9690   -0.1990    0.0000 H   0  0
   12.5600    0.9840    0.0000 H   0  0
    9.6870   -1.2920    0.0000 H   0  0
    5.0700   -1.3690    0.0000 H   0  0
   10.7090    1.8550    0.0000 H   0  0
    6.0590    1.7160    0.0000 H   0  0
    6.6530   -1.0260    0.0000 H   0  0
    9.0770    1.5210    0.0000 H   0  0
    8.0440    0.9280    0.0000 H   0  0
    7.2850    1.1710    0.0000 H   0  0
   16.4130   -1.5260    0.0000 H   0  0
  1 32  1  0
  2 32  1  0
  3 32  1  0
  4 26  1  0
  4 33  1  0
  5 27  1  0
  5 59  1  0
  6 27  2  0
  7 13  1  0
  7 21  1  0
  7 50  1  0
  8 10  1  0
  8 11  1  0
  8 18  1  0
  8 34  1  0
  9 12  1  0
  9 13  1  0
  9 20  1  1
  9 35  1  6
 10 16  1  0
 10 36  1  0
 10 37  1  0
 11 17  1  0
 11 38  1  0
 11 39  1  0
 12 15  1  0
 12 40  1  0
 12 41  1  0
 13 14  2  0
 14 15  1  0
 14 19  1  0
 15 42  1  0
 15 43  1  0
 16 17  1  0
 16 44  1  0
 16 45  1  0
 17 46  1  0
 17 47  1  0
 18 22  2  0
 18 24  1  0
 19 21  1  0
 19 23  2  0
 20 27  1  0
 20 48  1  0
 20 49  1  0
 21 25  2  0
 22 28  1  0
 22 32  1  0
 23 26  1  0
 23 51  1  0
 24 30  2  0
 24 52  1  0
 25 31  1  0
 25 53  1  0
 26 31  2  0
 28 29  2  0
 28 54  1  0
 29 30  1  0
 29 33  1  0
 30 55  1  0
 31 56  1  0
 33 57  1  0
 33 58  1  0
M  END
> <Name>
44623998

> <PUBCHEM_COMPOUND_CID>
44623998

> <Toxicity>
1

> <Data Set>
TrainingSet

$$$$
6442177
  SciTegic12242523262D

151154  0  0  1  0            999 V2000
    8.2860   -2.6320    0.0000 O   0  0
   10.1660   -1.9480    0.0000 O   0  0
    9.0810    3.4500    0.0000 O   0  0
   13.5430   -0.0890    0.0000 O   0  0
   11.6920    0.5790    0.0000 O   0  0
   10.2060    1.9190    0.0000 O   0  0
    6.2530    2.2000    0.0000 O   0  0
   13.0190    2.3510    0.0000 O   0  0
    6.2340   -4.3010    0.0000 O   0  0
   10.8110    1.9110    0.0000 O   0  0
   11.6380   -0.1040    0.0000 O   0  0
    2.3100    2.1180    0.0000 O   0  0
    4.9410    1.7940    0.0000 O   0  0
    3.1510   -0.0890    0.0000 O   0  0
   11.8110    2.9110    0.0000 N   0  0
    8.8080    0.3230    0.0000 C   0  0  1  0  0  0
    9.5730   -0.3200    0.0000 C   0  0
    7.8680   -0.0190    0.0000 C   0  0
    8.9810    1.3080    0.0000 C   0  0
    9.4000   -1.3050    0.0000 C   0  0  2  0  0  0
    8.4600   -1.6470    0.0000 C   0  0  1  0  0  0
    7.6940   -1.0040    0.0000 C   0  0
    8.2150    1.9500    0.0000 C   0  0  2  0  0  0
    8.2150    2.9500    0.0000 C   0  0  2  0  0  0
    7.3490    1.4500    0.0000 C   0  0
    7.3490    3.4500    0.0000 C   0  0
   10.9450    3.4110    0.0000 C   0  0  2  0  0  0
   13.5510    0.9290    0.0000 C   0  0  1  0  0  0
   12.6770    0.4110    0.0000 C   0  0  2  0  0  0
    7.3470   -2.9740    0.0000 C   0  0
   13.5430   -1.0890    0.0000 C   0  0  1  0  0  0
   14.4330    0.4250    0.0000 C   0  0
   10.0790    2.9110    0.0000 C   0  0
   10.9450    4.4110    0.0000 C   0  0
   14.4290   -0.5910    0.0000 C   0  0
    9.9920   -2.9320    0.0000 C   0  0
    6.3830    3.1910    0.0000 C   0  0
   12.6770    3.4110    0.0000 C   0  0
   11.8110    4.9110    0.0000 C   0  0
   12.6770    4.4110    0.0000 C   0  0
   12.6770   -1.5890    0.0000 C   0  0
   12.6770    1.4110    0.0000 C   0  0
    5.5170    3.6910    0.0000 C   0  0  2  0  0  0
   11.8110    1.9110    0.0000 C   0  0
   14.1880    1.7000    0.0000 C   0  0
    7.1730   -3.9590    0.0000 C   0  0
   11.8110   -1.0890    0.0000 C   0  0  1  0  0  0
    5.2580    4.6570    0.0000 C   0  0
    5.0170    2.8250    0.0000 C   0  0
   10.9450   -1.5890    0.0000 C   0  0
    4.0170    2.8250    0.0000 C   0  0
    3.3100    2.1180    0.0000 C   0  0  2  0  0  0
   10.9450   -2.5890    0.0000 C   0  0
   10.0790   -1.0890    0.0000 C   0  0
    4.0170    1.4110    0.0000 C   0  0  2  0  0  0
    3.6340    3.7490    0.0000 C   0  0
   10.6980    0.2380    0.0000 C   0  0
    4.0170    0.4110    0.0000 C   0  0
    4.8830   -0.0890    0.0000 C   0  0  1  0  0  0
    9.2130   -1.5890    0.0000 C   0  0
    5.7490    0.4110    0.0000 C   0  0
    6.6150   -0.0890    0.0000 C   0  0  1  0  0  0
    4.8830   -1.0890    0.0000 C   0  0
    8.3470   -1.0890    0.0000 C   0  0
    6.6150   -1.0890    0.0000 C   0  0
    7.1150    0.7770    0.0000 C   0  0
    7.4810   -1.5890    0.0000 C   0  0
    5.7340    1.1850    0.0000 C   0  0
    9.3900    0.5350    0.0000 H   0  0
   10.1560   -0.5320    0.0000 H   0  0
    9.8830    0.2170    0.0000 H   0  0
    7.7600    0.5910    0.0000 H   0  0
    7.2480   -0.0190    0.0000 H   0  0
    9.5640    1.0950    0.0000 H   0  0
    9.2910    1.8440    0.0000 H   0  0
    9.9820   -1.0930    0.0000 H   0  0
    8.9350   -2.0460    0.0000 H   0  0
    7.1120   -0.7920    0.0000 H   0  0
    7.3840   -1.5410    0.0000 H   0  0
    7.6780    2.2600    0.0000 H   0  0
    8.9510    2.5250    0.0000 H   0  0
    7.0390    1.9870    0.0000 H   0  0
    6.8120    1.1400    0.0000 H   0  0
    7.6590    0.9130    0.0000 H   0  0
    7.7880    3.8890    0.0000 H   0  0
    7.0390    3.9870    0.0000 H   0  0
   10.2090    3.8360    0.0000 H   0  0
   13.1480    1.4000    0.0000 H   0  0
    7.2390   -2.3630    0.0000 H   0  0
    6.7270   -2.9740    0.0000 H   0  0
   13.9640   -1.8270    0.0000 H   0  0
   15.0430    0.3160    0.0000 H   0  0
   14.6440    1.0080    0.0000 H   0  0
   14.6360   -1.1760    0.0000 H   0  0
   15.0400   -0.4870    0.0000 H   0  0
   10.7330    4.9940    0.0000 H   0  0
   10.3350    4.3040    0.0000 H   0  0
    9.3820   -2.8250    0.0000 H   0  0
    9.8840   -3.5430    0.0000 H   0  0
   10.6030   -3.0400    0.0000 H   0  0
   12.8890    2.8290    0.0000 H   0  0
   13.2880    3.5190    0.0000 H   0  0
   12.2100    5.3860    0.0000 H   0  0
   11.4130    5.3860    0.0000 H   0  0
   13.2880    4.3040    0.0000 H   0  0
   12.8890    4.9940    0.0000 H   0  0
   12.2790   -2.0640    0.0000 H   0  0
   13.0760   -2.0640    0.0000 H   0  0
    6.0090    4.0690    0.0000 H   0  0
   14.6660    1.3050    0.0000 H   0  0
   14.5830    2.1780    0.0000 H   0  0
   13.7100    2.0950    0.0000 H   0  0
    7.2810   -4.5690    0.0000 H   0  0
    7.7930   -3.9590    0.0000 H   0  0
   12.3190   -0.7330    0.0000 H   0  0
   11.2140    0.9750    0.0000 H   0  0
    5.8570    4.8180    0.0000 H   0  0
    5.0980    5.2560    0.0000 H   0  0
    4.6590    4.4970    0.0000 H   0  0
    5.3270    2.2880    0.0000 H   0  0
    6.1260   -4.9110    0.0000 H   0  0
    3.0730    1.5460    0.0000 H   0  0
   10.3250   -2.5890    0.0000 H   0  0
   10.9450   -3.2090    0.0000 H   0  0
   11.5650   -2.5890    0.0000 H   0  0
   10.1870   -0.4780    0.0000 H   0  0
    4.5330    1.0670    0.0000 H   0  0
    4.2070    3.9870    0.0000 H   0  0
    3.3970    4.3220    0.0000 H   0  0
    3.0620    3.5120    0.0000 H   0  0
   10.9100    0.8210    0.0000 H   0  0
   10.1150    0.4500    0.0000 H   0  0
   10.4860   -0.3450    0.0000 H   0  0
    4.3460   -0.3990    0.0000 H   0  0
    9.2130   -2.2090    0.0000 H   0  0
    6.1480    0.8860    0.0000 H   0  0
    5.3510    0.8860    0.0000 H   0  0
    2.0000    2.6550    0.0000 H   0  0
    7.2140   -0.2490    0.0000 H   0  0
    4.2630   -1.0890    0.0000 H   0  0
    4.8830   -1.7090    0.0000 H   0  0
    5.5030   -1.0890    0.0000 H   0  0
    8.3470   -0.4690    0.0000 H   0  0
    6.0780   -1.3990    0.0000 H   0  0
    7.6520    0.4670    0.0000 H   0  0
    7.4250    1.3140    0.0000 H   0  0
    6.5780    1.0870    0.0000 H   0  0
    7.4810   -2.2090    0.0000 H   0  0
    5.3570    0.6930    0.0000 H   0  0
    6.2260    0.8080    0.0000 H   0  0
    6.1120    1.6770    0.0000 H   0  0
 21  1  1  6
  1 30  1  0
 20  2  1  1
  2 36  1  0
  3 24  1  0
  3 33  1  0
  4 29  1  0
  4 31  1  0
 29  5  1  6
  5116  1  0
  6 33  2  0
  7 37  2  0
  8 42  2  0
  9 46  1  0
  9121  1  0
 10 44  2  0
 47 11  1  1
 11 57  1  0
 52 12  1  6
 12138  1  0
 55 13  1  1
 13 68  1  0
 14 58  2  0
 15 27  1  0
 15 38  1  0
 15 44  1  0
 16 17  1  0
 16 18  1  0
 16 19  1  1
 16 69  1  6
 17 20  1  0
 17 70  1  0
 17 71  1  0
 18 22  1  0
 18 72  1  0
 18 73  1  0
 19 23  1  0
 19 74  1  0
 19 75  1  0
 20 21  1  0
 20 76  1  6
 21 22  1  0
 21 77  1  1
 22 78  1  0
 22 79  1  0
 23 24  1  0
 23 25  1  1
 23 80  1  6
 24 26  1  0
 24 81  1  1
 25 82  1  0
 25 83  1  0
 25 84  1  0
 26 37  1  0
 26 85  1  0
 26 86  1  0
 27 33  1  0
 27 34  1  0
 27 87  1  1
 28 29  1  0
 28 32  1  0
 28 45  1  6
 28 88  1  1
 29 42  1  0
 30 46  1  0
 30 89  1  0
 30 90  1  0
 31 35  1  0
 31 41  1  0
 31 91  1  6
 32 35  1  0
 32 92  1  0
 32 93  1  0
 34 39  1  0
 34 96  1  0
 34 97  1  0
 35 94  1  0
 35 95  1  0
 36 98  1  0
 36 99  1  0
 36100  1  0
 37 43  1  0
 38 40  1  0
 38101  1  0
 38102  1  0
 39 40  1  0
 39103  1  0
 39104  1  0
 40105  1  0
 40106  1  0
 41 47  1  0
 41107  1  0
 41108  1  0
 42 44  1  0
 43 48  1  1
 43 49  1  0
 43109  1  6
 45110  1  0
 45111  1  0
 45112  1  0
 46113  1  0
 46114  1  0
 47 50  1  0
 47115  1  6
 48117  1  0
 48118  1  0
 48119  1  0
 49 51  2  0
 49120  1  0
 50 53  1  0
 50 54  2  0
 51 52  1  0
 51 56  1  0
 52 55  1  0
 52122  1  1
 53123  1  0
 53124  1  0
 53125  1  0
 54 60  1  0
 54126  1  0
 55 58  1  0
 55127  1  6
 56128  1  0
 56129  1  0
 56130  1  0
 57131  1  0
 57132  1  0
 57133  1  0
 58 59  1  0
 59 61  1  0
 59 63  1  1
 59134  1  6
 60 64  2  0
 60135  1  0
 61 62  1  0
 61136  1  0
 61137  1  0
 62 65  1  0
 62 66  1  6
 62139  1  1
 63140  1  0
 63141  1  0
 63142  1  0
 64 67  1  0
 64143  1  0
 65 67  2  0
 65144  1  0
 66145  1  0
 66146  1  0
 66147  1  0
 67148  1  0
 68149  1  0
 68150  1  0
 68151  1  0
M  END
> <Name>
6442177

> <PUBCHEM_COMPOUND_CID>
6442177

> <Toxicity>
1

> <Data Set>
TrainingSet

$$$$
60198
  SciTegic12242523262D

 46 49  0  0  1  0            999 V2000
    8.6500    2.6620    0.0000 O   0  0
    2.0000   -1.6450    0.0000 O   0  0
    7.3930    0.4070    0.0000 C   0  0  1  0  0  0
    6.5270   -0.0930    0.0000 C   0  0  1  0  0  0
    7.3930    1.4070    0.0000 C   0  0  2  0  0  0
    5.6610    0.4070    0.0000 C   0  0  2  0  0  0
    6.5270    1.9070    0.0000 C   0  0
    5.6610    1.4070    0.0000 C   0  0
    4.7510   -0.1000    0.0000 C   0  0  1  0  0  0
    8.3390    0.1020    0.0000 C   0  0
    6.5430   -1.1340    0.0000 C   0  0
    8.3390    1.7120    0.0000 C   0  0
    8.9230    0.9070    0.0000 C   0  0
    7.3930    2.4070    0.0000 C   0  0
    4.7430   -1.1420    0.0000 C   0  0
    5.6450   -1.6620    0.0000 C   0  0
    4.7590    0.9000    0.0000 C   0  0
    3.8240    0.4640    0.0000 C   0  0
    3.8080   -1.6910    0.0000 C   0  0
    2.8760   -0.0640    0.0000 C   0  0
    5.6490   -2.6620    0.0000 C   0  0
    2.8680   -1.1490    0.0000 C   0  0
    7.4830   -0.4380    0.0000 H   0  0
    7.2660   -0.5120    0.0000 H   0  0
    6.3970    0.8320    0.0000 H   0  0
    6.9260    2.3820    0.0000 H   0  0
    6.1280    2.3820    0.0000 H   0  0
    5.4490    1.9900    0.0000 H   0  0
    5.0500    1.2990    0.0000 H   0  0
    8.0880   -0.4650    0.0000 H   0  0
    8.8770   -0.2070    0.0000 H   0  0
    6.7610   -1.7150    0.0000 H   0  0
    7.1520   -1.0190    0.0000 H   0  0
    9.3840    0.4920    0.0000 H   0  0
    9.3840    1.3220    0.0000 H   0  0
    8.0130    2.4070    0.0000 H   0  0
    7.3930    3.0270    0.0000 H   0  0
    6.7730    2.4070    0.0000 H   0  0
    5.3790    0.8950    0.0000 H   0  0
    4.7640    1.5200    0.0000 H   0  0
    4.1390    0.9050    0.0000 H   0  0
    3.8360    1.0840    0.0000 H   0  0
    3.8100   -2.3110    0.0000 H   0  0
    2.3430    0.2520    0.0000 H   0  0
    5.1130   -2.9740    0.0000 H   0  0
    6.1870   -2.9700    0.0000 H   0  0
  1 12  2  0
  2 22  2  0
  3  4  1  0
  3  5  1  0
  3 10  1  0
  3 23  1  6
  4  6  1  0
  4 11  1  0
  4 24  1  1
  5  7  1  0
  5 12  1  0
  5 14  1  1
  6  8  1  0
  6  9  1  0
  6 25  1  6
  7  8  1  0
  7 26  1  0
  7 27  1  0
  8 28  1  0
  8 29  1  0
  9 15  1  0
  9 17  1  1
  9 18  1  0
 10 13  1  0
 10 30  1  0
 10 31  1  0
 11 16  1  0
 11 32  1  0
 11 33  1  0
 12 13  1  0
 13 34  1  0
 13 35  1  0
 14 36  1  0
 14 37  1  0
 14 38  1  0
 15 16  1  0
 15 19  2  0
 16 21  2  0
 17 39  1  0
 17 40  1  0
 17 41  1  0
 18 20  2  0
 18 42  1  0
 19 22  1  0
 19 43  1  0
 20 22  1  0
 20 44  1  0
 21 45  1  0
 21 46  1  0
M  END
> <Name>
60198

> <PUBCHEM_COMPOUND_CID>
60198

> <Toxicity>
1

> <Data Set>
TrainingSet

$$$$
3325
  SciTegic12242523262D

 35 35  0  0  0  0            999 V2000
    7.7510   -0.0260    0.0000 S   0  0
    3.4120    0.3860    0.0000 S   0  0
   10.7540    0.5650    0.0000 S   0  0
    3.1030    1.3370    0.0000 O   0  0
    3.7210   -0.5650    0.0000 O   0  0
    4.3630    0.6950    0.0000 N   0  0
   10.2540   -0.9730    0.0000 N   0  0
    4.8980   -0.9530    0.0000 N   0  0
   12.0150   -0.6950    0.0000 N   0  0
    2.4610    0.0770    0.0000 N   0  0
   13.7090   -0.3350    0.0000 N   0  0
   12.5500    0.9530    0.0000 N   0  0
    6.0570    0.3350    0.0000 C   0  0
    6.8000   -0.3350    0.0000 C   0  0
    8.4940   -0.6950    0.0000 C   0  0
    5.1060    0.0260    0.0000 C   0  0
    9.4460   -0.3860    0.0000 C   0  0
    9.7540    0.5650    0.0000 C   0  0
   11.0640   -0.3860    0.0000 C   0  0
   12.7580   -0.0260    0.0000 C   0  0
    6.5460    0.7160    0.0000 H   0  0
    5.7660    0.8820    0.0000 H   0  0
    6.3120   -0.7160    0.0000 H   0  0
    7.0910   -0.8820    0.0000 H   0  0
    8.0060   -1.0760    0.0000 H   0  0
    8.7860   -1.2420    0.0000 H   0  0
    9.3900    1.0670    0.0000 H   0  0
    5.3590   -1.3680    0.0000 H   0  0
    4.3080   -1.1440    0.0000 H   0  0
    2.0000    0.4920    0.0000 H   0  0
    2.3320   -0.5300    0.0000 H   0  0
   14.1700    0.0800    0.0000 H   0  0
   13.8380   -0.9410    0.0000 H   0  0
   13.0100    1.3680    0.0000 H   0  0
   11.9600    1.1440    0.0000 H   0  0
  1 14  1  0
  1 15  1  0
  2  4  2  0
  2  5  2  0
  2  6  1  0
  2 10  1  0
  3 18  1  0
  3 19  1  0
  6 16  2  0
  7 17  1  0
  7 19  2  0
  8 16  1  0
  8 28  1  0
  8 29  1  0
  9 19  1  0
  9 20  2  0
 10 30  1  0
 10 31  1  0
 11 20  1  0
 11 32  1  0
 11 33  1  0
 12 20  1  0
 12 34  1  0
 12 35  1  0
 13 14  1  0
 13 16  1  0
 13 21  1  0
 13 22  1  0
 14 23  1  0
 14 24  1  0
 15 17  1  0
 15 25  1  0
 15 26  1  0
 17 18  2  0
 18 27  1  0
M  END
> <Name>
3325

> <PUBCHEM_COMPOUND_CID>
3325

> <Toxicity>
0

> <Data Set>
TrainingSet

$$$$
3331
  SciTegic12242523262D

 31 31  0  0  0  0            999 V2000
    3.7320    1.3450    0.0000 O   0  0
    5.4640    1.3450    0.0000 O   0  0
    2.0000    1.3450    0.0000 O   0  0
    7.1960    1.3450    0.0000 O   0  0
    2.8660    2.8450    0.0000 N   0  0
    6.3300    2.8450    0.0000 N   0  0
    4.5980   -0.1550    0.0000 C   0  0
    4.5980   -1.1550    0.0000 C   0  0
    3.7320    0.3450    0.0000 C   0  0
    5.4640    0.3450    0.0000 C   0  0
    3.7320   -1.6550    0.0000 C   0  0
    5.4640   -1.6550    0.0000 C   0  0
    3.7320   -2.6550    0.0000 C   0  0
    5.4640   -2.6550    0.0000 C   0  0
    4.5980   -3.1550    0.0000 C   0  0
    2.8660    1.8450    0.0000 C   0  0
    6.3300    1.8450    0.0000 C   0  0
    4.5980    0.4650    0.0000 H   0  0
    3.1220    0.4530    0.0000 H   0  0
    3.5200   -0.2380    0.0000 H   0  0
    5.6760   -0.2380    0.0000 H   0  0
    6.0750    0.4530    0.0000 H   0  0
    3.1950   -1.3450    0.0000 H   0  0
    6.0010   -1.3450    0.0000 H   0  0
    3.1950   -2.9650    0.0000 H   0  0
    6.0010   -2.9650    0.0000 H   0  0
    4.5980   -3.7750    0.0000 H   0  0
    2.3290    3.1550    0.0000 H   0  0
    3.4030    3.1550    0.0000 H   0  0
    6.8670    3.1550    0.0000 H   0  0
    5.7930    3.1550    0.0000 H   0  0
  1  9  1  0
  1 16  1  0
  2 10  1  0
  2 17  1  0
  3 16  2  0
  4 17  2  0
  5 16  1  0
  5 28  1  0
  5 29  1  0
  6 17  1  0
  6 30  1  0
  6 31  1  0
  7  8  1  0
  7  9  1  0
  7 10  1  0
  7 18  1  0
  8 11  2  0
  8 12  1  0
  9 19  1  0
  9 20  1  0
 10 21  1  0
 10 22  1  0
 11 13  1  0
 11 23  1  0
 12 14  2  0
 12 24  1  0
 13 15  2  0
 13 25  1  0
 14 15  1  0
 14 26  1  0
 15 27  1  0
M  END
> <Name>
3331

> <PUBCHEM_COMPOUND_CID>
3331

> <Toxicity>
1

> <Data Set>
TrainingSet

$$$$
3345
  SciTegic12242523262D

 53 55  0  0  0  0            999 V2000
    2.0000    2.7500    0.0000 O   0  0
    3.7320   -0.2500    0.0000 N   0  0
    3.7320    2.7500    0.0000 N   0  0
    3.7320    1.7500    0.0000 C   0  0
    2.8660    1.2500    0.0000 C   0  0
    4.5980    1.2500    0.0000 C   0  0
    2.8660    0.2500    0.0000 C   0  0
    4.5980    0.2500    0.0000 C   0  0
    3.7320   -1.2500    0.0000 C   0  0
    2.8660   -1.7500    0.0000 C   0  0
    4.5980    3.2500    0.0000 C   0  0
    2.8660    3.2500    0.0000 C   0  0
    2.8660   -2.7500    0.0000 C   0  0
    2.8660    4.2500    0.0000 C   0  0
    5.4640    2.7500    0.0000 C   0  0
    4.5980    4.2500    0.0000 C   0  0
    2.0000    4.7500    0.0000 C   0  0
    3.7320   -3.2500    0.0000 C   0  0
    2.0000   -3.2500    0.0000 C   0  0
    6.3300    3.2500    0.0000 C   0  0
    5.4640    4.7500    0.0000 C   0  0
    6.3300    4.2500    0.0000 C   0  0
    3.7320   -4.2500    0.0000 C   0  0
    2.0000   -4.2500    0.0000 C   0  0
    2.8660   -4.7500    0.0000 C   0  0
    4.2690    2.0600    0.0000 H   0  0
    2.6540    1.8330    0.0000 H   0  0
    2.2550    1.1420    0.0000 H   0  0
    5.2090    1.1420    0.0000 H   0  0
    4.8100    1.8330    0.0000 H   0  0
    2.2550    0.3580    0.0000 H   0  0
    2.6540   -0.3330    0.0000 H   0  0
    4.8100   -0.3330    0.0000 H   0  0
    5.2090    0.3580    0.0000 H   0  0
    3.9440   -1.8330    0.0000 H   0  0
    4.3430   -1.1420    0.0000 H   0  0
    2.6540   -1.1670    0.0000 H   0  0
    2.2550   -1.8580    0.0000 H   0  0
    3.4770    4.1420    0.0000 H   0  0
    3.0780    4.8330    0.0000 H   0  0
    5.4640    2.1300    0.0000 H   0  0
    4.0610    4.5600    0.0000 H   0  0
    2.3100    5.2870    0.0000 H   0  0
    1.4630    5.0600    0.0000 H   0  0
    1.6900    4.2130    0.0000 H   0  0
    4.2690   -2.9400    0.0000 H   0  0
    1.4630   -2.9400    0.0000 H   0  0
    6.8670    2.9400    0.0000 H   0  0
    5.4640    5.3700    0.0000 H   0  0
    6.8670    4.5600    0.0000 H   0  0
    4.2690   -4.5600    0.0000 H   0  0
    1.4630   -4.5600    0.0000 H   0  0
    2.8660   -5.3700    0.0000 H   0  0
  1 12  2  0
  2  7  1  0
  2  8  1  0
  2  9  1  0
  3  4  1  0
  3 11  1  0
  3 12  1  0
  4  5  1  0
  4  6  1  0
  4 26  1  0
  5  7  1  0
  5 27  1  0
  5 28  1  0
  6  8  1  0
  6 29  1  0
  6 30  1  0
  7 31  1  0
  7 32  1  0
  8 33  1  0
  8 34  1  0
  9 10  1  0
  9 35  1  0
  9 36  1  0
 10 13  1  0
 10 37  1  0
 10 38  1  0
 11 15  2  0
 11 16  1  0
 12 14  1  0
 13 18  2  0
 13 19  1  0
 14 17  1  0
 14 39  1  0
 14 40  1  0
 15 20  1  0
 15 41  1  0
 16 21  2  0
 16 42  1  0
 17 43  1  0
 17 44  1  0
 17 45  1  0
 18 23  1  0
 18 46  1  0
 19 24  2  0
 19 47  1  0
 20 22  2  0
 20 48  1  0
 21 22  1  0
 21 49  1  0
 22 50  1  0
 23 25  2  0
 23 51  1  0
 24 25  1  0
 24 52  1  0
 25 53  1  0
M  END
> <Name>
3345

> <PUBCHEM_COMPOUND_CID>
3345

> <Toxicity>
0

> <Data Set>
TrainingSet

$$$$
3348
  SciTegic12242523262D

 76 79  0  0  1  0            999 V2000
    4.1350    4.5600    0.0000 O   0  0
    2.5370   -0.9400    0.0000 O   0  0
    2.5370   -6.9400    0.0000 O   0  0
    4.2690   -6.9400    0.0000 O   0  0
    5.1350    1.5600    0.0000 N   0  0
    5.1350    3.5600    0.0000 C   0  0
    6.0010    3.0600    0.0000 C   0  0
    4.2690    3.0600    0.0000 C   0  0
    5.1350    4.5600    0.0000 C   0  0
    6.0010    2.0600    0.0000 C   0  0
    4.2690    2.0600    0.0000 C   0  0
    5.1350    0.5600    0.0000 C   0  0
    5.1350    5.5600    0.0000 C   0  0
    6.1350    4.5600    0.0000 C   0  0
    4.2690    0.0600    0.0000 C   0  0
    4.2690   -0.9400    0.0000 C   0  0
    6.0010    6.0600    0.0000 C   0  0
    6.6350    5.4260    0.0000 C   0  0
    4.2690    6.0600    0.0000 C   0  0
    6.6350    3.6940    0.0000 C   0  0
    3.4030   -1.4400    0.0000 C   0  0
    6.0010    7.0600    0.0000 C   0  0
    7.6350    5.4260    0.0000 C   0  0
    4.2690    7.0600    0.0000 C   0  0
    7.6350    3.6940    0.0000 C   0  0
    3.4030   -2.4400    0.0000 C   0  0
    5.1350    7.5600    0.0000 C   0  0
    8.1350    4.5600    0.0000 C   0  0
    2.5370   -2.9400    0.0000 C   0  0
    4.2690   -2.9400    0.0000 C   0  0
    3.4030   -5.4400    0.0000 C   0  0
    3.4030   -4.4400    0.0000 C   0  0
    2.5370   -3.9400    0.0000 C   0  0
    4.2690   -3.9400    0.0000 C   0  0
    2.4030   -5.4400    0.0000 C   0  0
    4.4030   -5.4400    0.0000 C   0  0
    3.4030   -6.4400    0.0000 C   0  0
    5.6720    3.8700    0.0000 H   0  0
    6.6120    2.9520    0.0000 H   0  0
    6.2130    3.6430    0.0000 H   0  0
    4.0570    3.6430    0.0000 H   0  0
    3.6580    2.9520    0.0000 H   0  0
    6.2130    1.4770    0.0000 H   0  0
    6.6120    2.1680    0.0000 H   0  0
    3.6580    2.1680    0.0000 H   0  0
    4.0570    1.4770    0.0000 H   0  0
    5.3470   -0.0230    0.0000 H   0  0
    5.7460    0.6680    0.0000 H   0  0
    4.0570    0.6430    0.0000 H   0  0
    3.6580   -0.0480    0.0000 H   0  0
    3.8250    5.0970    0.0000 H   0  0
    4.4810   -1.5230    0.0000 H   0  0
    4.8800   -0.8320    0.0000 H   0  0
    6.5380    5.7500    0.0000 H   0  0
    6.3250    5.9630    0.0000 H   0  0
    3.7320    5.7500    0.0000 H   0  0
    6.3250    3.1570    0.0000 H   0  0
    2.8660   -1.7500    0.0000 H   0  0
    6.5380    7.3700    0.0000 H   0  0
    7.9450    5.9630    0.0000 H   0  0
    3.7320    7.3700    0.0000 H   0  0
    7.9450    3.1570    0.0000 H   0  0
    5.1350    8.1800    0.0000 H   0  0
    8.7550    4.5600    0.0000 H   0  0
    2.0000   -1.2500    0.0000 H   0  0
    2.0000   -2.6300    0.0000 H   0  0
    4.8060   -2.6300    0.0000 H   0  0
    2.0000   -4.2500    0.0000 H   0  0
    4.8060   -4.2500    0.0000 H   0  0
    2.4030   -4.8200    0.0000 H   0  0
    1.7830   -5.4400    0.0000 H   0  0
    2.4030   -6.0600    0.0000 H   0  0
    4.4030   -6.0600    0.0000 H   0  0
    5.0230   -5.4400    0.0000 H   0  0
    4.4030   -4.8200    0.0000 H   0  0
    2.5370   -7.5600    0.0000 H   0  0
  1  9  1  0
  1 51  1  0
  2 21  1  0
  2 65  1  0
  3 37  1  0
  3 76  1  0
  4 37  2  0
  5 10  1  0
  5 11  1  0
  5 12  1  0
  6  7  1  0
  6  8  1  0
  6  9  1  0
  6 38  1  0
  7 10  1  0
  7 39  1  0
  7 40  1  0
  8 11  1  0
  8 41  1  0
  8 42  1  0
  9 13  1  0
  9 14  1  0
 10 43  1  0
 10 44  1  0
 11 45  1  0
 11 46  1  0
 12 15  1  0
 12 47  1  0
 12 48  1  0
 13 17  2  0
 13 19  1  0
 14 18  2  0
 14 20  1  0
 15 16  1  0
 15 49  1  0
 15 50  1  0
 16 21  1  0
 16 52  1  0
 16 53  1  0
 17 22  1  0
 17 54  1  0
 18 23  1  0
 18 55  1  0
 19 24  2  0
 19 56  1  0
 20 25  2  0
 20 57  1  0
 21 26  1  0
 21 58  1  0
 22 27  2  0
 22 59  1  0
 23 28  2  0
 23 60  1  0
 24 27  1  0
 24 61  1  0
 25 28  1  0
 25 62  1  0
 26 29  2  0
 26 30  1  0
 27 63  1  0
 28 64  1  0
 29 33  1  0
 29 66  1  0
 30 34  2  0
 30 67  1  0
 31 32  1  0
 31 35  1  0
 31 36  1  0
 31 37  1  0
 32 33  2  0
 32 34  1  0
 33 68  1  0
 34 69  1  0
 35 70  1  0
 35 71  1  0
 35 72  1  0
 36 73  1  0
 36 74  1  0
 36 75  1  0
M  END
> <Name>
3348

> <PUBCHEM_COMPOUND_CID>
3348

> <Toxicity>
0

> <Data Set>
TrainingSet

$$$$
107970
  SciTegic12242523262D

 55 55  0  0  0  0            999 V2000
    7.8300    3.7290    0.0000 O   0  0
    4.8300    5.4610    0.0000 O   0  0
    6.3300    5.5950    0.0000 N   0  0
    6.3300    4.5950    0.0000 C   0  0
    6.3300    3.5950    0.0000 C   0  0
    5.4640    3.0950    0.0000 C   0  0
    7.3300    4.5950    0.0000 C   0  0
    5.3300    4.5950    0.0000 C   0  0
    4.5980   -2.4050    0.0000 C   0  0
    4.5980   -1.4050    0.0000 C   0  0
    3.7320   -2.9050    0.0000 C   0  0
    5.4640    2.0950    0.0000 C   0  0
    5.4640   -0.9050    0.0000 C   0  0
    3.7320   -3.9050    0.0000 C   0  0
    5.4640    0.0950    0.0000 C   0  0
    2.8660   -4.4050    0.0000 C   0  0
    4.5980    1.5950    0.0000 C   0  0
    6.3300    1.5950    0.0000 C   0  0
    4.5980    0.5950    0.0000 C   0  0
    6.3300    0.5950    0.0000 C   0  0
    2.8660   -5.4050    0.0000 C   0  0
    2.0000   -5.9050    0.0000 C   0  0
    6.5420    3.0120    0.0000 H   0  0
    6.9410    3.7030    0.0000 H   0  0
    5.2520    3.6780    0.0000 H   0  0
    4.8540    2.9870    0.0000 H   0  0
    7.9130    4.8070    0.0000 H   0  0
    7.2220    5.2060    0.0000 H   0  0
    4.7480    4.3830    0.0000 H   0  0
    5.4380    3.9840    0.0000 H   0  0
    4.8100   -2.9880    0.0000 H   0  0
    5.2090   -2.2970    0.0000 H   0  0
    4.3860   -0.8220    0.0000 H   0  0
    3.9880   -1.5130    0.0000 H   0  0
    3.5200   -2.3220    0.0000 H   0  0
    3.1220   -3.0130    0.0000 H   0  0
    5.6760   -1.4880    0.0000 H   0  0
    6.0750   -0.7970    0.0000 H   0  0
    3.9440   -4.4880    0.0000 H   0  0
    4.3430   -3.7970    0.0000 H   0  0
    6.8670    5.9050    0.0000 H   0  0
    5.7930    5.9050    0.0000 H   0  0
    2.6540   -3.8220    0.0000 H   0  0
    2.2550   -4.5130    0.0000 H   0  0
    4.0610    1.9050    0.0000 H   0  0
    6.8670    1.9050    0.0000 H   0  0
    4.0610    0.2850    0.0000 H   0  0
    6.8670    0.2850    0.0000 H   0  0
    3.0780   -5.9880    0.0000 H   0  0
    3.4770   -5.2970    0.0000 H   0  0
    8.4500    3.7290    0.0000 H   0  0
    4.2100    5.4610    0.0000 H   0  0
    1.6900   -5.3680    0.0000 H   0  0
    1.4630   -6.2150    0.0000 H   0  0
    2.3100   -6.4420    0.0000 H   0  0
  1  7  1  0
  1 51  1  0
  2  8  1  0
  2 52  1  0
  3  4  1  0
  3 41  1  0
  3 42  1  0
  4  5  1  0
  4  7  1  0
  4  8  1  0
  5  6  1  0
  5 23  1  0
  5 24  1  0
  6 12  1  0
  6 25  1  0
  6 26  1  0
  7 27  1  0
  7 28  1  0
  8 29  1  0
  8 30  1  0
  9 10  1  0
  9 11  1  0
  9 31  1  0
  9 32  1  0
 10 13  1  0
 10 33  1  0
 10 34  1  0
 11 14  1  0
 11 35  1  0
 11 36  1  0
 12 17  2  0
 12 18  1  0
 13 15  1  0
 13 37  1  0
 13 38  1  0
 14 16  1  0
 14 39  1  0
 14 40  1  0
 15 19  2  0
 15 20  1  0
 16 21  1  0
 16 43  1  0
 16 44  1  0
 17 19  1  0
 17 45  1  0
 18 20  2  0
 18 46  1  0
 19 47  1  0
 20 48  1  0
 21 22  1  0
 21 49  1  0
 21 50  1  0
 22 53  1  0
 22 54  1  0
 22 55  1  0
M  END
> <Name>
107970

> <PUBCHEM_COMPOUND_CID>
107970

> <Toxicity>
1

> <Data Set>
TrainingSet

$$$$
6918248
  SciTegic12242523262D

 49 52  0  0  0  0            999 V2000
    5.5170    5.1700    0.0000 F   0  0
    6.9290    5.0940    0.0000 F   0  0
    5.4410    3.7580    0.0000 F   0  0
    6.2620   -3.7760    0.0000 O   0  0
    6.2780   -0.8640    0.0000 N   0  0
    6.8990    1.0370    0.0000 N   0  0
    4.6780   -2.9720    0.0000 N   0  0
    4.6780   -4.5810    0.0000 N   0  0
    5.6100   -0.1200    0.0000 C   0  0
    7.2570   -0.6580    0.0000 C   0  0
    5.9210    0.8300    0.0000 C   0  0
    7.5670    0.2920    0.0000 C   0  0
    5.9670   -1.8150    0.0000 C   0  0
    4.9890   -2.0210    0.0000 C   0  0
    7.2100    1.9870    0.0000 C   0  0
    3.7320   -3.2760    0.0000 C   0  0
    5.2620   -3.7760    0.0000 C   0  0
    6.5420    2.7310    0.0000 C   0  0
    3.7320   -4.2760    0.0000 C   0  0
    8.1890    2.1930    0.0000 C   0  0
    6.8530    3.6820    0.0000 C   0  0
    2.8660   -2.7760    0.0000 C   0  0
    8.4990    3.1440    0.0000 C   0  0
    2.8660   -4.7760    0.0000 C   0  0
    7.8310    3.8880    0.0000 C   0  0
    2.0000   -3.2760    0.0000 C   0  0
    2.0000   -4.2760    0.0000 C   0  0
    6.1850    4.4260    0.0000 C   0  0
    5.0630    0.1720    0.0000 H   0  0
    5.2280   -0.6080    0.0000 H   0  0
    7.2770   -1.2780    0.0000 H   0  0
    7.8700   -0.7460    0.0000 H   0  0
    5.9000    1.4500    0.0000 H   0  0
    5.3070    0.9180    0.0000 H   0  0
    8.1140    0.0000    0.0000 H   0  0
    7.9500    0.7800    0.0000 H   0  0
    5.9880   -2.4350    0.0000 H   0  0
    6.5810   -1.9020    0.0000 H   0  0
    4.9680   -1.4020    0.0000 H   0  0
    4.3750   -1.9340    0.0000 H   0  0
    5.9360    2.6040    0.0000 H   0  0
    8.6030    1.7320    0.0000 H   0  0
    4.8710   -5.1700    0.0000 H   0  0
    2.8660   -2.1560    0.0000 H   0  0
    9.1060    3.2720    0.0000 H   0  0
    2.8660   -5.3960    0.0000 H   0  0
    8.0240    4.4780    0.0000 H   0  0
    1.4630   -2.9660    0.0000 H   0  0
    1.4630   -4.5860    0.0000 H   0  0
  1 28  1  0
  2 28  1  0
  3 28  1  0
  4 17  2  0
  5  9  1  0
  5 10  1  0
  5 13  1  0
  6 11  1  0
  6 12  1  0
  6 15  1  0
  7 14  1  0
  7 16  1  0
  7 17  1  0
  8 17  1  0
  8 19  1  0
  8 43  1  0
  9 11  1  0
  9 29  1  0
  9 30  1  0
 10 12  1  0
 10 31  1  0
 10 32  1  0
 11 33  1  0
 11 34  1  0
 12 35  1  0
 12 36  1  0
 13 14  1  0
 13 37  1  0
 13 38  1  0
 14 39  1  0
 14 40  1  0
 15 18  2  0
 15 20  1  0
 16 19  2  0
 16 22  1  0
 18 21  1  0
 18 41  1  0
 19 24  1  0
 20 23  2  0
 20 42  1  0
 21 25  2  0
 21 28  1  0
 22 26  2  0
 22 44  1  0
 23 25  1  0
 23 45  1  0
 24 27  2  0
 24 46  1  0
 25 47  1  0
 26 27  1  0
 26 48  1  0
 27 49  1  0
M  END
> <Name>
6918248

> <PUBCHEM_COMPOUND_CID>
6918248

> <Toxicity>
1

> <Data Set>
TrainingSet

$$$$
21319
  SciTegic12242523262D

 47 50  0  0  1  0            999 V2000
    2.7900    2.4140    0.0000 Cl  0  0
    9.8950    0.8020    0.0000 S   0  0
    4.6700   -0.4950    0.0000 F   0  0
    7.2300   -1.2200    0.0000 O   0  0
    9.5350   -2.5110    0.0000 O   0  0
   11.1820   -1.9750    0.0000 O   0  0
    6.0020   -0.0170    0.0000 O   0  0
    4.8260    3.1000    0.0000 O   0  0
    8.9440   -0.5070    0.0000 N   0  0
    7.2300    1.2050    0.0000 N   0  0
    4.1180    2.3950    0.0000 N   0  0
    8.9440    0.4930    0.0000 C   0  0  1  0  0  0
   10.4820   -0.0070    0.0000 C   0  0
    9.8950   -0.8160    0.0000 C   0  0  2  0  0  0
    7.9350    0.4970    0.0000 C   0  0  1  0  0  0
    7.9350   -0.5110    0.0000 C   0  0
   11.2920    0.5800    0.0000 C   0  0
   11.2920   -0.5950    0.0000 C   0  0
   10.2040   -1.7670    0.0000 C   0  0
    6.2630    0.9480    0.0000 C   0  0
    5.5580    1.6570    0.0000 C   0  0
    4.5700    1.5030    0.0000 C   0  0
    5.7160    2.6440    0.0000 C   0  0
    3.7300    0.9600    0.0000 C   0  0
    6.6080    3.0970    0.0000 C   0  0
    2.8400    1.4160    0.0000 C   0  0
    3.7800   -0.0390    0.0000 C   0  0
    2.0000    0.8730    0.0000 C   0  0
    2.9400   -0.5820    0.0000 C   0  0
    2.0500   -0.1260    0.0000 C   0  0
    8.8120    1.3320    0.0000 H   0  0
    9.4560   -1.2550    0.0000 H   0  0
    8.1740    1.0690    0.0000 H   0  0
   11.6560    0.0790    0.0000 H   0  0
   11.7930    0.9450    0.0000 H   0  0
   10.9270    1.0820    0.0000 H   0  0
   10.9270   -1.0970    0.0000 H   0  0
   11.7930   -0.9600    0.0000 H   0  0
   11.6560   -0.0940    0.0000 H   0  0
    7.3920    1.8040    0.0000 H   0  0
    9.7260   -3.1000    0.0000 H   0  0
    6.8880    2.5440    0.0000 H   0  0
    7.1610    3.3770    0.0000 H   0  0
    6.3280    3.6500    0.0000 H   0  0
    1.4480    1.1550    0.0000 H   0  0
    2.9720   -1.2010    0.0000 H   0  0
    1.5300   -0.4630    0.0000 H   0  0
  1 26  1  0
  2 12  1  0
  2 13  1  0
  3 27  1  0
  4 16  2  0
  5 19  1  0
  5 41  1  0
  6 19  2  0
  7 20  2  0
  8 11  1  0
  8 23  1  0
  9 12  1  0
  9 14  1  0
  9 16  1  0
 15 10  1  1
 10 20  1  0
 10 40  1  0
 11 22  2  0
 12 15  1  0
 12 31  1  6
 13 14  1  0
 13 17  1  0
 13 18  1  0
 14 19  1  6
 14 32  1  1
 15 16  1  0
 15 33  1  6
 17 34  1  0
 17 35  1  0
 17 36  1  0
 18 37  1  0
 18 38  1  0
 18 39  1  0
 20 21  1  0
 21 22  1  0
 21 23  2  0
 22 24  1  0
 23 25  1  0
 24 26  1  0
 24 27  2  0
 25 42  1  0
 25 43  1  0
 25 44  1  0
 26 28  2  0
 27 29  1  0
 28 30  1  0
 28 45  1  0
 29 30  2  0
 29 46  1  0
 30 47  1  0
M  END
> <Name>
21319

> <PUBCHEM_COMPOUND_CID>
21319

> <Toxicity>
0

> <Data Set>
TrainingSet

$$$$
3365
  SciTegic12242523262D

 34 36  0  0  0  0            999 V2000
    2.0000   -0.3510    0.0000 F   0  0
    3.7320   -3.3510    0.0000 F   0  0
    2.7320    0.6490    0.0000 O   0  0
    4.5980    2.1490    0.0000 N   0  0
    5.5980    0.1490    0.0000 N   0  0
    5.5120    1.7420    0.0000 N   0  0
    5.7030   -0.8460    0.0000 N   0  0
    5.6810    3.3510    0.0000 N   0  0
    7.1810   -0.1880    0.0000 N   0  0
    3.7320    0.6490    0.0000 C   0  0
    3.7320    1.6490    0.0000 C   0  0
    4.7320    0.6490    0.0000 C   0  0
    3.7320   -0.3510    0.0000 C   0  0
    2.8660   -0.8510    0.0000 C   0  0
    4.5980   -0.8510    0.0000 C   0  0
    2.8660   -1.8510    0.0000 C   0  0
    4.5980   -1.8510    0.0000 C   0  0
    4.7030    3.1430    0.0000 C   0  0
    6.5120    0.5560    0.0000 C   0  0
    3.7320   -2.3510    0.0000 C   0  0
    6.1810    2.4850    0.0000 C   0  0
    6.6810   -1.0540    0.0000 C   0  0
    3.5200    2.2310    0.0000 H   0  0
    3.1220    1.5410    0.0000 H   0  0
    5.2070    1.0470    0.0000 H   0  0
    4.5720    0.0500    0.0000 H   0  0
    2.4220    1.1860    0.0000 H   0  0
    5.1350   -0.5410    0.0000 H   0  0
    2.3290   -2.1610    0.0000 H   0  0
    5.1350   -2.1610    0.0000 H   0  0
    4.2420    3.5580    0.0000 H   0  0
    6.6400    1.1620    0.0000 H   0  0
    6.7970    2.4200    0.0000 H   0  0
    6.9330   -1.6200    0.0000 H   0  0
  1 14  1  0
  2 20  1  0
  3 10  1  0
  3 27  1  0
  4  6  1  0
  4 11  1  0
  4 18  1  0
  5  7  1  0
  5 12  1  0
  5 19  1  0
  6 21  2  0
  7 22  2  0
  8 18  2  0
  8 21  1  0
  9 19  2  0
  9 22  1  0
 10 11  1  0
 10 12  1  0
 10 13  1  0
 11 23  1  0
 11 24  1  0
 12 25  1  0
 12 26  1  0
 13 14  2  0
 13 15  1  0
 14 16  1  0
 15 17  2  0
 15 28  1  0
 16 20  2  0
 16 29  1  0
 17 20  1  0
 17 30  1  0
 18 31  1  0
 19 32  1  0
 21 33  1  0
 22 34  1  0
M  END
> <Name>
3365

> <PUBCHEM_COMPOUND_CID>
3365

> <Toxicity>
0

> <Data Set>
TrainingSet

$$$$
3366
  SciTegic12242523262D

 13 13  0  0  0  0            999 V2000
    2.5370    1.3100    0.0000 F   0  0
    6.0010   -0.6900    0.0000 O   0  0
    4.2690   -0.6900    0.0000 N   0  0
    2.5370   -0.6900    0.0000 N   0  0
    5.1350    0.8100    0.0000 N   0  0
    3.4030   -0.1900    0.0000 C   0  0
    3.4030    0.8100    0.0000 C   0  0
    5.1350   -0.1900    0.0000 C   0  0
    4.2690    1.3100    0.0000 C   0  0
    4.2690   -1.3100    0.0000 H   0  0
    4.2690    1.9300    0.0000 H   0  0
    2.5370   -1.3100    0.0000 H   0  0
    2.0000   -0.3800    0.0000 H   0  0
  1  7  1  0
  2  8  2  0
  3  6  1  0
  3  8  1  0
  3 10  1  0
  4  6  1  0
  4 12  1  0
  4 13  1  0
  5  8  1  0
  5  9  2  0
  6  7  2  0
  7  9  1  0
  9 11  1  0
M  END
> <Name>
3366

> <PUBCHEM_COMPOUND_CID>
3366

> <Toxicity>
1

> <Data Set>
TrainingSet

$$$$
941361
  SciTegic12242523262D

 56 59  0  0  0  0            999 V2000
    8.9280   -4.7500    0.0000 F   0  0
    2.0000   -4.7500    0.0000 F   0  0
    5.4640   -1.7500    0.0000 N   0  0
    5.4640    0.2500    0.0000 N   0  0
    4.5980   -1.2500    0.0000 C   0  0
    6.3300   -1.2500    0.0000 C   0  0
    5.4640   -2.7500    0.0000 C   0  0
    4.5980   -0.2500    0.0000 C   0  0
    6.3300   -0.2500    0.0000 C   0  0
    5.4640    1.2500    0.0000 C   0  0
    6.3300   -3.2500    0.0000 C   0  0
    4.5980   -3.2500    0.0000 C   0  0
    6.3300    1.7500    0.0000 C   0  0
    6.3300   -4.2500    0.0000 C   0  0
    3.7320   -2.7500    0.0000 C   0  0
    7.1960   -2.7500    0.0000 C   0  0
    4.5980   -4.2500    0.0000 C   0  0
    7.1960   -4.7500    0.0000 C   0  0
    2.8660   -3.2500    0.0000 C   0  0
    8.0620   -3.2500    0.0000 C   0  0
    3.7320   -4.7500    0.0000 C   0  0
    6.3300    2.7500    0.0000 C   0  0
    8.0620   -4.2500    0.0000 C   0  0
    2.8660   -4.2500    0.0000 C   0  0
    7.1960    3.2500    0.0000 C   0  0
    8.0620    2.7500    0.0000 C   0  0
    7.1960    4.2500    0.0000 C   0  0
    8.9280    3.2500    0.0000 C   0  0
    8.0620    4.7500    0.0000 C   0  0
    8.9280    4.2500    0.0000 C   0  0
    3.9880   -1.1420    0.0000 H   0  0
    4.3860   -1.8330    0.0000 H   0  0
    6.5420   -1.8330    0.0000 H   0  0
    6.9410   -1.1420    0.0000 H   0  0
    5.4640   -3.3700    0.0000 H   0  0
    4.3860    0.3330    0.0000 H   0  0
    3.9880   -0.3580    0.0000 H   0  0
    6.9410   -0.3580    0.0000 H   0  0
    6.5420    0.3330    0.0000 H   0  0
    5.2520    1.8330    0.0000 H   0  0
    4.8540    1.1420    0.0000 H   0  0
    6.8670    1.4400    0.0000 H   0  0
    5.7930   -4.5600    0.0000 H   0  0
    3.7320   -2.1300    0.0000 H   0  0
    7.1960   -2.1300    0.0000 H   0  0
    5.1350   -4.5600    0.0000 H   0  0
    7.1960   -5.3700    0.0000 H   0  0
    2.3290   -2.9400    0.0000 H   0  0
    8.5990   -2.9400    0.0000 H   0  0
    3.7320   -5.3700    0.0000 H   0  0
    5.7930    3.0600    0.0000 H   0  0
    8.0620    2.1300    0.0000 H   0  0
    6.6590    4.5600    0.0000 H   0  0
    9.4650    2.9400    0.0000 H   0  0
    8.0620    5.3700    0.0000 H   0  0
    9.4650    4.5600    0.0000 H   0  0
  1 23  1  0
  2 24  1  0
  3  5  1  0
  3  6  1  0
  3  7  1  0
  4  8  1  0
  4  9  1  0
  4 10  1  0
  5  8  1  0
  5 31  1  0
  5 32  1  0
  6  9  1  0
  6 33  1  0
  6 34  1  0
  7 11  1  0
  7 12  1  0
  7 35  1  0
  8 36  1  0
  8 37  1  0
  9 38  1  0
  9 39  1  0
 10 13  1  0
 10 40  1  0
 10 41  1  0
 11 14  1  0
 11 16  2  0
 12 15  1  0
 12 17  2  0
 13 22  2  0
 13 42  1  0
 14 18  2  0
 14 43  1  0
 15 19  2  0
 15 44  1  0
 16 20  1  0
 16 45  1  0
 17 21  1  0
 17 46  1  0
 18 23  1  0
 18 47  1  0
 19 24  1  0
 19 48  1  0
 20 23  2  0
 20 49  1  0
 21 24  2  0
 21 50  1  0
 22 25  1  0
 22 51  1  0
 25 26  2  0
 25 27  1  0
 26 28  1  0
 26 52  1  0
 27 29  2  0
 27 53  1  0
 28 30  2  0
 28 54  1  0
 29 30  1  0
 29 55  1  0
 30 56  1  0
M  END
> <Name>
941361

> <PUBCHEM_COMPOUND_CID>
941361

> <Toxicity>
1

> <Data Set>
TestSet

$$$$
3380
  SciTegic12242523262D

 35 37  0  0  0  0            999 V2000
    5.5100    0.7380    0.0000 F   0  0
    2.0000   -2.6580    0.0000 O   0  0
    7.9120   -0.4470    0.0000 O   0  5
    7.0400    1.0490    0.0000 O   0  0
    3.5980   -2.0980    0.0000 N   0  0
    2.6240   -0.0740    0.0000 N   0  0
    7.0440    0.0490    0.0000 N   0  3
    4.3800   -0.4750    0.0000 C   0  0
    4.3800   -1.4750    0.0000 C   0  0
    3.5980    0.1490    0.0000 C   0  0
    5.2740    0.0600    0.0000 C   0  0
    2.1900   -0.9750    0.0000 C   0  0
    5.2740   -2.0100    0.0000 C   0  0
    2.6240   -1.8760    0.0000 C   0  0
    3.8210    1.1240    0.0000 C   0  0
    6.1800   -0.4540    0.0000 C   0  0
    6.1800   -1.4960    0.0000 C   0  0
    3.8210   -3.0730    0.0000 C   0  0
    4.7760    1.4180    0.0000 C   0  0
    3.0880    1.8040    0.0000 C   0  0
    4.9990    2.3930    0.0000 C   0  0
    3.3100    2.7790    0.0000 C   0  0
    4.2660    3.0730    0.0000 C   0  0
    5.2670    0.6800    0.0000 H   0  0
    1.7050   -0.5880    0.0000 H   0  0
    1.7050   -1.3620    0.0000 H   0  0
    5.2670   -2.6300    0.0000 H   0  0
    6.7160   -1.8080    0.0000 H   0  0
    3.2160   -3.2110    0.0000 H   0  0
    3.9590   -3.6780    0.0000 H   0  0
    4.4250   -2.9350    0.0000 H   0  0
    2.4950    1.6210    0.0000 H   0  0
    5.5920    2.5760    0.0000 H   0  0
    2.8560    3.2000    0.0000 H   0  0
    4.4040    3.6780    0.0000 H   0  0
  1 19  1  0
  2 14  2  0
  3  7  1  0
  4  7  2  0
  5  9  1  0
  5 14  1  0
  5 18  1  0
  6 10  2  0
  6 12  1  0
  7 16  1  0
  8  9  2  0
  8 10  1  0
  8 11  1  0
  9 13  1  0
 10 15  1  0
 11 16  2  0
 11 24  1  0
 12 14  1  0
 12 25  1  0
 12 26  1  0
 13 17  2  0
 13 27  1  0
 15 19  2  0
 15 20  1  0
 16 17  1  0
 17 28  1  0
 18 29  1  0
 18 30  1  0
 18 31  1  0
 19 21  1  0
 20 22  2  0
 20 32  1  0
 21 23  2  0
 21 33  1  0
 22 23  1  0
 22 34  1  0
 23 35  1  0
M  CHG  2   3  -1   7   1
M  END
> <Name>
3380

> <PUBCHEM_COMPOUND_CID>
3380

> <Toxicity>
1

> <Data Set>
TestSet

$$$$
3385
  SciTegic12242523262D

 12 12  0  0  0  0            999 V2000
    2.0000    1.3100    0.0000 F   0  0
    2.0000   -0.6900    0.0000 O   0  0
    5.4640   -0.6900    0.0000 O   0  0
    3.7320   -0.6900    0.0000 N   0  0
    4.5980    0.8100    0.0000 N   0  0
    2.8660   -0.1900    0.0000 C   0  0
    4.5980   -0.1900    0.0000 C   0  0
    2.8660    0.8100    0.0000 C   0  0
    3.7320    1.3100    0.0000 C   0  0
    3.7320   -1.3100    0.0000 H   0  0
    5.1350    1.1200    0.0000 H   0  0
    3.7320    1.9300    0.0000 H   0  0
  1  8  1  0
  2  6  2  0
  3  7  2  0
  4  6  1  0
  4  7  1  0
  4 10  1  0
  5  7  1  0
  5  9  1  0
  5 11  1  0
  6  8  1  0
  8  9  2  0
  9 12  1  0
M  END
> <Name>
3385

> <PUBCHEM_COMPOUND_CID>
3385

> <Toxicity>
1

> <Data Set>
TrainingSet

$$$$
3386
  SciTegic12242523262D

 40 41  0  0  1  0            999 V2000
    7.3300    3.2500    0.0000 F   0  0
    6.3300    4.2500    0.0000 F   0  0
    5.3300    3.2500    0.0000 F   0  0
    6.3300   -0.7500    0.0000 O   0  0
    2.8660   -0.7500    0.0000 N   0  0
    5.4640   -1.2500    0.0000 C   0  0
    4.5980   -0.7500    0.0000 C   0  0
    5.4640   -2.2500    0.0000 C   0  0
    3.7320   -1.2500    0.0000 C   0  0
    4.5980   -2.7500    0.0000 C   0  0
    6.3300   -2.7500    0.0000 C   0  0
    6.3300    0.2500    0.0000 C   0  0
    4.5980   -3.7500    0.0000 C   0  0
    6.3300   -3.7500    0.0000 C   0  0
    7.1960    0.7500    0.0000 C   0  0
    5.4640    0.7500    0.0000 C   0  0
    6.3300    2.2500    0.0000 C   0  0
    5.4640   -4.2500    0.0000 C   0  0
    2.0000   -1.2500    0.0000 C   0  0
    7.1960    1.7500    0.0000 C   0  0
    5.4640    1.7500    0.0000 C   0  0
    6.3300    3.2500    0.0000 C   0  0
    5.4640   -0.6300    0.0000 H   0  0
    4.9970   -0.2750    0.0000 H   0  0
    4.2000   -0.2750    0.0000 H   0  0
    3.3340   -1.7250    0.0000 H   0  0
    4.1310   -1.7250    0.0000 H   0  0
    4.0610   -2.4400    0.0000 H   0  0
    6.8670   -2.4400    0.0000 H   0  0
    2.8660   -0.1300    0.0000 H   0  0
    4.0610   -4.0600    0.0000 H   0  0
    6.8670   -4.0600    0.0000 H   0  0
    7.7330    0.4400    0.0000 H   0  0
    4.9270    0.4400    0.0000 H   0  0
    5.4640   -4.8700    0.0000 H   0  0
    1.6900   -0.7130    0.0000 H   0  0
    1.4630   -1.5600    0.0000 H   0  0
    2.3100   -1.7870    0.0000 H   0  0
    7.7330    2.0600    0.0000 H   0  0
    4.9270    2.0600    0.0000 H   0  0
  1 22  1  0
  2 22  1  0
  3 22  1  0
  4  6  1  0
  4 12  1  0
  5  9  1  0
  5 19  1  0
  5 30  1  0
  6  7  1  0
  6  8  1  0
  6 23  1  0
  7  9  1  0
  7 24  1  0
  7 25  1  0
  8 10  2  0
  8 11  1  0
  9 26  1  0
  9 27  1  0
 10 13  1  0
 10 28  1  0
 11 14  2  0
 11 29  1  0
 12 15  2  0
 12 16  1  0
 13 18  2  0
 13 31  1  0
 14 18  1  0
 14 32  1  0
 15 20  1  0
 15 33  1  0
 16 21  2  0
 16 34  1  0
 17 20  2  0
 17 21  1  0
 17 22  1  0
 18 35  1  0
 19 36  1  0
 19 37  1  0
 19 38  1  0
 20 39  1  0
 21 40  1  0
M  END
> <Name>
3386

> <PUBCHEM_COMPOUND_CID>
3386

> <Toxicity>
0

> <Data Set>
TrainingSet

$$$$
3393
  SciTegic12242523262D

 50 52  0  0  0  0            999 V2000
    7.0440    1.7040    0.0000 Cl  0  0
    5.5100    2.3930    0.0000 F   0  0
    2.0000   -1.0030    0.0000 O   0  0
    3.5980   -0.4430    0.0000 N   0  0
    3.3100   -3.0730    0.0000 N   0  0
    2.6240    1.5810    0.0000 N   0  0
    3.8210   -1.4180    0.0000 C   0  0
    3.0880   -2.0980    0.0000 C   0  0
    4.3800    0.1800    0.0000 C   0  0
    2.5770   -3.7540    0.0000 C   0  0
    4.2660   -3.3680    0.0000 C   0  0
    4.3800    1.1800    0.0000 C   0  0
    2.6240   -0.2210    0.0000 C   0  0
    3.5980    1.8040    0.0000 C   0  0
    2.1900    0.6800    0.0000 C   0  0
    5.2740   -0.3540    0.0000 C   0  0
    5.2740    1.7150    0.0000 C   0  0
    2.8000   -4.7280    0.0000 C   0  0
    4.4880   -4.3430    0.0000 C   0  0
    3.8210    2.7790    0.0000 C   0  0
    6.1800    0.1590    0.0000 C   0  0
    6.1800    1.2010    0.0000 C   0  0
    4.7760    3.0730    0.0000 C   0  0
    3.0880    3.4590    0.0000 C   0  0
    4.9990    4.0480    0.0000 C   0  0
    3.3100    4.4340    0.0000 C   0  0
    4.2660    4.7280    0.0000 C   0  0
    4.1570   -1.9390    0.0000 H   0  0
    4.3920   -1.1770    0.0000 H   0  0
    2.7520   -1.5780    0.0000 H   0  0
    2.5170   -2.3390    0.0000 H   0  0
    2.2410   -3.2330    0.0000 H   0  0
    2.0060   -3.9940    0.0000 H   0  0
    4.8850   -3.3370    0.0000 H   0  0
    4.3430   -2.7530    0.0000 H   0  0
    1.7050    1.0670    0.0000 H   0  0
    1.7050    0.2940    0.0000 H   0  0
    5.2670   -0.9740    0.0000 H   0  0
    5.2670    2.3350    0.0000 H   0  0
    2.1950   -4.8660    0.0000 H   0  0
    2.9380   -5.3330    0.0000 H   0  0
    3.4040   -4.5900    0.0000 H   0  0
    3.8840   -4.4810    0.0000 H   0  0
    4.6260   -4.9480    0.0000 H   0  0
    5.0930   -4.2050    0.0000 H   0  0
    6.7160   -0.1530    0.0000 H   0  0
    2.4950    3.2760    0.0000 H   0  0
    5.5920    4.2310    0.0000 H   0  0
    2.8560    4.8550    0.0000 H   0  0
    4.4040    5.3330    0.0000 H   0  0
  1 22  1  0
  2 23  1  0
  3 13  2  0
  4  7  1  0
  4  9  1  0
  4 13  1  0
  5  8  1  0
  5 10  1  0
  5 11  1  0
  6 14  2  0
  6 15  1  0
  7  8  1  0
  7 28  1  0
  7 29  1  0
  8 30  1  0
  8 31  1  0
  9 12  2  0
  9 16  1  0
 10 18  1  0
 10 32  1  0
 10 33  1  0
 11 19  1  0
 11 34  1  0
 11 35  1  0
 12 14  1  0
 12 17  1  0
 13 15  1  0
 14 20  1  0
 15 36  1  0
 15 37  1  0
 16 21  2  0
 16 38  1  0
 17 22  2  0
 17 39  1  0
 18 40  1  0
 18 41  1  0
 18 42  1  0
 19 43  1  0
 19 44  1  0
 19 45  1  0
 20 23  2  0
 20 24  1  0
 21 22  1  0
 21 46  1  0
 23 25  1  0
 24 26  2  0
 24 47  1  0
 25 27  2  0
 25 48  1  0
 26 27  1  0
 26 49  1  0
 27 50  1  0
M  END
> <Name>
3393

> <PUBCHEM_COMPOUND_CID>
3393

> <Toxicity>
1

> <Data Set>
TrainingSet

$$$$
3394
  SciTegic12242523262D

 31 32  0  0  1  0            999 V2000
    2.0000    0.9050    0.0000 F   0  0
    4.5980   -3.5950    0.0000 O   0  0
    5.4640   -2.0950    0.0000 O   0  0
    3.7320   -2.0950    0.0000 C   0  0
    3.7320   -1.0950    0.0000 C   0  0
    3.7320    0.9050    0.0000 C   0  0
    2.8660   -0.5950    0.0000 C   0  0
    4.5980   -0.5950    0.0000 C   0  0
    2.8660    0.4050    0.0000 C   0  0
    4.5980    0.4050    0.0000 C   0  0
    2.8660   -2.5950    0.0000 C   0  0
    3.7320    1.9050    0.0000 C   0  0
    4.5980   -2.5950    0.0000 C   0  0
    2.8660    2.4050    0.0000 C   0  0
    4.5980    2.4050    0.0000 C   0  0
    2.8660    3.4050    0.0000 C   0  0
    4.5980    3.4050    0.0000 C   0  0
    3.7320    3.9050    0.0000 C   0  0
    3.7320   -2.9450    0.0000 H   0  0
    2.3290   -0.9050    0.0000 H   0  0
    5.1350   -0.9050    0.0000 H   0  0
    5.1350    0.7150    0.0000 H   0  0
    2.5560   -2.0580    0.0000 H   0  0
    2.3290   -2.9050    0.0000 H   0  0
    3.1760   -3.1320    0.0000 H   0  0
    2.3290    2.0950    0.0000 H   0  0
    5.1350    2.0950    0.0000 H   0  0
    2.3290    3.7150    0.0000 H   0  0
    5.1350    3.7150    0.0000 H   0  0
    3.7320    4.5250    0.0000 H   0  0
    5.1350   -3.9050    0.0000 H   0  0
  1  9  1  0
  2 13  1  0
  2 31  1  0
  3 13  2  0
  4  5  1  0
  4 11  1  0
  4 13  1  0
  4 19  1  0
  5  7  2  0
  5  8  1  0
  6  9  2  0
  6 10  1  0
  6 12  1  0
  7  9  1  0
  7 20  1  0
  8 10  2  0
  8 21  1  0
 10 22  1  0
 11 23  1  0
 11 24  1  0
 11 25  1  0
 12 14  2  0
 12 15  1  0
 14 16  1  0
 14 26  1  0
 15 17  2  0
 15 27  1  0
 16 18  2  0
 16 28  1  0
 17 18  1  0
 17 29  1  0
 18 30  1  0
M  END
> <Name>
3394

> <PUBCHEM_COMPOUND_CID>
3394

> <Toxicity>
0

> <Data Set>
TestSet

$$$$
3397
  SciTegic12242523262D

 30 30  0  0  0  0            999 V2000
    3.5980    2.2500    0.0000 F   0  0
    4.5980    3.2500    0.0000 F   0  0
    5.5980    2.2500    0.0000 F   0  0
    5.4640   -2.2500    0.0000 O   0  0
    2.0000    0.7500    0.0000 O   0  5
    2.8660    2.2500    0.0000 O   0  0
    6.3300   -0.7500    0.0000 N   0  0
    2.8660    1.2500    0.0000 N   0  3
    7.1960   -2.2500    0.0000 C   0  0
    5.4640   -0.2500    0.0000 C   0  0
    6.3300   -1.7500    0.0000 C   0  0
    4.5980    1.2500    0.0000 C   0  0
    5.4640    0.7500    0.0000 C   0  0
    7.1960   -3.2500    0.0000 C   0  0
    8.0620   -1.7500    0.0000 C   0  0
    3.7320    0.7500    0.0000 C   0  0
    4.5980   -0.7500    0.0000 C   0  0
    3.7320   -0.2500    0.0000 C   0  0
    4.5980    2.2500    0.0000 C   0  0
    6.6590   -2.5600    0.0000 H   0  0
    6.8670   -0.4400    0.0000 H   0  0
    6.0010    1.0600    0.0000 H   0  0
    6.5760   -3.2500    0.0000 H   0  0
    7.1960   -3.8700    0.0000 H   0  0
    7.8160   -3.2500    0.0000 H   0  0
    8.3720   -2.2870    0.0000 H   0  0
    8.5990   -1.4400    0.0000 H   0  0
    7.7520   -1.2130    0.0000 H   0  0
    4.5980   -1.3700    0.0000 H   0  0
    3.1950   -0.5600    0.0000 H   0  0
  1 19  1  0
  2 19  1  0
  3 19  1  0
  4 11  2  0
  5  8  1  0
  6  8  2  0
  7 10  1  0
  7 11  1  0
  7 21  1  0
  8 16  1  0
  9 11  1  0
  9 14  1  0
  9 15  1  0
  9 20  1  0
 10 13  2  0
 10 17  1  0
 12 13  1  0
 12 16  2  0
 12 19  1  0
 13 22  1  0
 14 23  1  0
 14 24  1  0
 14 25  1  0
 15 26  1  0
 15 27  1  0
 15 28  1  0
 16 18  1  0
 17 18  2  0
 17 29  1  0
 18 30  1  0
M  CHG  2   5  -1   8   1
M  END
> <Name>
3397

> <PUBCHEM_COMPOUND_CID>
3397

> <Toxicity>
1

> <Data Set>
TestSet

$$$$
3404
  SciTegic12242523262D

 43 43  0  0  0  0            999 V2000
    6.1350    3.7500    0.0000 F   0  0
    5.1350    4.7500    0.0000 F   0  0
    4.1350    3.7500    0.0000 F   0  0
    7.7330   -3.7500    0.0000 O   0  0
    4.2690   -1.7500    0.0000 O   0  0
    4.2690   -0.7500    0.0000 N   0  0
    2.5370   -3.7500    0.0000 N   0  0
    6.0010   -1.7500    0.0000 C   0  0
    6.0010   -0.7500    0.0000 C   0  0
    6.8670   -2.2500    0.0000 C   0  0
    5.1350   -0.2500    0.0000 C   0  0
    5.1350    0.7500    0.0000 C   0  0
    6.8670   -3.2500    0.0000 C   0  0
    4.2690    1.2500    0.0000 C   0  0
    6.0010    1.2500    0.0000 C   0  0
    5.1350    2.7500    0.0000 C   0  0
    4.2690    2.2500    0.0000 C   0  0
    6.0010    2.2500    0.0000 C   0  0
    5.1350    3.7500    0.0000 C   0  0
    3.4030   -2.2500    0.0000 C   0  0
    7.7330   -4.7500    0.0000 C   0  0
    3.4030   -3.2500    0.0000 C   0  0
    5.3900   -1.6420    0.0000 H   0  0
    5.7890   -2.3330    0.0000 H   0  0
    6.6120   -0.8580    0.0000 H   0  0
    6.2130   -0.1670    0.0000 H   0  0
    7.4780   -2.3580    0.0000 H   0  0
    7.0790   -1.6670    0.0000 H   0  0
    6.2560   -3.1420    0.0000 H   0  0
    6.6550   -3.8330    0.0000 H   0  0
    3.7320    0.9400    0.0000 H   0  0
    6.5380    0.9400    0.0000 H   0  0
    3.7320    2.5600    0.0000 H   0  0
    6.5380    2.5600    0.0000 H   0  0
    3.1910   -1.6670    0.0000 H   0  0
    2.7920   -2.3580    0.0000 H   0  0
    7.1130   -4.7500    0.0000 H   0  0
    7.7330   -5.3700    0.0000 H   0  0
    8.3530   -4.7500    0.0000 H   0  0
    3.6150   -3.8330    0.0000 H   0  0
    4.0130   -3.1420    0.0000 H   0  0
    2.5370   -4.3700    0.0000 H   0  0
    2.0000   -3.4400    0.0000 H   0  0
  1 19  1  0
  2 19  1  0
  3 19  1  0
  4 13  1  0
  4 21  1  0
  5  6  1  0
  5 20  1  0
  6 11  2  0
  7 22  1  0
  7 42  1  0
  7 43  1  0
  8  9  1  0
  8 10  1  0
  8 23  1  0
  8 24  1  0
  9 11  1  0
  9 25  1  0
  9 26  1  0
 10 13  1  0
 10 27  1  0
 10 28  1  0
 11 12  1  0
 12 14  2  0
 12 15  1  0
 13 29  1  0
 13 30  1  0
 14 17  1  0
 14 31  1  0
 15 18  2  0
 15 32  1  0
 16 17  2  0
 16 18  1  0
 16 19  1  0
 17 33  1  0
 18 34  1  0
 20 22  1  0
 20 35  1  0
 20 36  1  0
 21 37  1  0
 21 38  1  0
 21 39  1  0
 22 40  1  0
 22 41  1  0
M  END
> <Name>
3404

> <PUBCHEM_COMPOUND_CID>
3404

> <Toxicity>
0

> <Data Set>
TrainingSet

$$$$
6037
  SciTegic12242523262D

 51 53  0  0  1  0            999 V2000
   15.5880    0.2770    0.0000 O   0  0
   12.1200    1.2640    0.0000 O   0  0
   14.7270   -1.2260    0.0000 O   0  0
   15.5760    3.2770    0.0000 O   0  0
   13.8440    3.2700    0.0000 O   0  0
    4.2690   -0.2770    0.0000 O   0  0
   12.9910   -0.2330    0.0000 N   0  0
    8.6670   -1.7500    0.0000 N   0  0
    6.0290   -1.2420    0.0000 N   0  0
    4.2690   -3.2770    0.0000 N   0  0
    6.0290   -3.3120    0.0000 N   0  0
    3.4030   -1.7770    0.0000 N   0  0
    2.5370   -3.2770    0.0000 N   0  0
   13.8560    0.2700    0.0000 C   0  0  1  0  0  0
   13.8520    1.2700    0.0000 C   0  0
   14.7160    1.7740    0.0000 C   0  0
   12.1230    0.2640    0.0000 C   0  0
   11.2590   -0.2400    0.0000 C   0  0
   14.7230   -0.2260    0.0000 C   0  0
    9.5310   -1.2460    0.0000 C   0  0
    7.7990   -1.2530    0.0000 C   0  0
   11.2630   -1.2400    0.0000 C   0  0
   10.3910    0.2570    0.0000 C   0  0
   10.3990   -1.7430    0.0000 C   0  0
    9.5270   -0.2460    0.0000 C   0  0
    6.9350   -1.7560    0.0000 C   0  0
   14.7120    2.7740    0.0000 C   0  0
    5.1350   -1.7770    0.0000 C   0  0
    5.1350   -2.7770    0.0000 C   0  0
    6.9350   -2.7980    0.0000 C   0  0
    4.2690   -1.2770    0.0000 C   0  0
    3.4030   -2.7770    0.0000 C   0  0
   13.8580   -0.3500    0.0000 H   0  0
   13.6370    1.8520    0.0000 H   0  0
   13.2410    1.1600    0.0000 H   0  0
   14.9300    1.1920    0.0000 H   0  0
   15.3260    1.8840    0.0000 H   0  0
   12.9940   -0.8530    0.0000 H   0  0
    8.1960   -0.7760    0.0000 H   0  0
    7.3990   -0.7800    0.0000 H   0  0
   11.8010   -1.5480    0.0000 H   0  0
   10.3890    0.8770    0.0000 H   0  0
    8.6690   -2.3700    0.0000 H   0  0
   10.4020   -2.3630    0.0000 H   0  0
    8.9890    0.0620    0.0000 H   0  0
    7.4710   -3.1100    0.0000 H   0  0
   16.1260   -0.0310    0.0000 H   0  0
    4.2690   -3.8970    0.0000 H   0  0
   15.5740    3.8970    0.0000 H   0  0
    2.0000   -2.9670    0.0000 H   0  0
    2.5370   -3.8970    0.0000 H   0  0
  1 19  1  0
  1 47  1  0
  2 17  2  0
  3 19  2  0
  4 27  1  0
  4 49  1  0
  5 27  2  0
  6 31  2  0
 14  7  1  1
  7 17  1  0
  7 38  1  0
  8 20  1  0
  8 21  1  0
  8 43  1  0
  9 26  2  0
  9 28  1  0
 10 29  1  0
 10 32  1  0
 10 48  1  0
 11 29  1  0
 11 30  2  0
 12 31  1  0
 12 32  2  0
 13 32  1  0
 13 50  1  0
 13 51  1  0
 14 15  1  0
 14 19  1  0
 14 33  1  6
 15 16  1  0
 15 34  1  0
 15 35  1  0
 16 27  1  0
 16 36  1  0
 16 37  1  0
 17 18  1  0
 18 22  2  0
 18 23  1  0
 20 24  2  0
 20 25  1  0
 21 26  1  0
 21 39  1  0
 21 40  1  0
 22 24  1  0
 22 41  1  0
 23 25  2  0
 23 42  1  0
 24 44  1  0
 25 45  1  0
 26 30  1  0
 28 29  2  0
 28 31  1  0
 30 46  1  0
M  END
> <Name>
6037

> <PUBCHEM_COMPOUND_CID>
6037

> <Toxicity>
0

> <Data Set>
TrainingSet

$$$$
44561
  SciTegic12242523262D

  7  6  0  0  0  0            999 V2000
    3.7320   -0.3170    0.0000 P   0  0
    2.8660   -0.8170    0.0000 O   0  0
    3.2320    0.5490    0.0000 O   0  5
    4.2320   -1.1830    0.0000 O   0  5
    5.4640   -0.3170    0.0000 O   0  5
    4.5980    1.1830    0.0000 O   0  0
    4.5980    0.1830    0.0000 C   0  0
  1  2  2  0
  1  3  1  0
  1  4  1  0
  1  7  1  0
  5  7  1  0
  6  7  2  0
M  CHG  3   3  -1   4  -1   5  -1
M  END
> <Name>
44561

> <PUBCHEM_COMPOUND_CID>
44561

> <Toxicity>
1

> <Data Set>
TrainingSet

$$$$
56339
  SciTegic12242523262D

 40 42  0  0  0  0            999 V2000
    7.6630    2.6100    0.0000 P   0  0
    4.2450    0.8970    0.0000 O   0  0
    7.3210    1.6700    0.0000 O   0  0
    7.5530   -0.3070    0.0000 O   0  0
    8.0050    3.5500    0.0000 O   0  0
    8.6030    2.2680    0.0000 O   0  0
    6.7240    2.9520    0.0000 O   0  0
    5.9380   -1.0600    0.0000 N   0  0
    5.9940    0.5570    0.0000 N   0  0
    4.9980   -0.7180    0.0000 C   0  0
    5.0330    0.2820    0.0000 C   0  0
    4.6560   -1.6580    0.0000 C   0  0
    3.9990   -0.6830    0.0000 C   0  0
    6.5540   -0.2720    0.0000 C   0  0
    6.3360    1.4970    0.0000 C   0  0
    3.7900   -2.1580    0.0000 C   0  0
    3.5290    0.2000    0.0000 C   0  0
    5.5220   -2.1580    0.0000 C   0  0
    3.4690   -1.5310    0.0000 C   0  0
    3.7900   -3.1580    0.0000 C   0  0
    2.5300    0.2350    0.0000 C   0  0
    5.5220   -3.1580    0.0000 C   0  0
    2.4700   -1.4960    0.0000 C   0  0
    4.6560   -3.6580    0.0000 C   0  0
    2.0000   -0.6130    0.0000 C   0  0
    6.1090   -1.6560    0.0000 H   0  0
    6.3360    2.1170    0.0000 H   0  0
    5.7260    1.6040    0.0000 H   0  0
    3.2530   -1.8480    0.0000 H   0  0
    3.8580    0.7260    0.0000 H   0  0
    6.0590   -1.8480    0.0000 H   0  0
    3.7600   -2.0780    0.0000 H   0  0
    3.2530   -3.4680    0.0000 H   0  0
    2.2390    0.7820    0.0000 H   0  0
    6.0590   -3.4680    0.0000 H   0  0
    2.1410   -2.0220    0.0000 H   0  0
    4.6560   -4.2780    0.0000 H   0  0
    1.3800   -0.5920    0.0000 H   0  0
    8.6160    3.6580    0.0000 H   0  0
    8.7100    1.6580    0.0000 H   0  0
  1  3  1  0
  1  5  1  0
  1  6  1  0
  1  7  2  0
  2 11  2  0
  3 15  1  0
  4 14  2  0
  5 39  1  0
  6 40  1  0
  8 10  1  0
  8 14  1  0
  8 26  1  0
  9 11  1  0
  9 14  1  0
  9 15  1  0
 10 11  1  0
 10 12  1  0
 10 13  1  0
 12 16  2  0
 12 18  1  0
 13 17  2  0
 13 19  1  0
 15 27  1  0
 15 28  1  0
 16 20  1  0
 16 29  1  0
 17 21  1  0
 17 30  1  0
 18 22  2  0
 18 31  1  0
 19 23  2  0
 19 32  1  0
 20 24  2  0
 20 33  1  0
 21 25  2  0
 21 34  1  0
 22 24  1  0
 22 35  1  0
 23 25  1  0
 23 36  1  0
 24 37  1  0
 25 38  1  0
M  END
> <Name>
56339

> <PUBCHEM_COMPOUND_CID>
56339

> <Toxicity>
0

> <Data Set>
TrainingSet

$$$$
3446
  SciTegic12242523262D

 29 29  0  0  0  0            999 V2000
    5.8100    1.8660    0.0000 O   0  0
    5.8100    0.1340    0.0000 O   0  0
    2.3100    1.0000    0.0000 N   0  0
    3.8100    0.1340    0.0000 C   0  0
    2.9440   -0.3660    0.0000 C   0  0
    4.6760   -0.3660    0.0000 C   0  0
    2.9440   -1.3660    0.0000 C   0  0
    4.6760   -1.3660    0.0000 C   0  0
    3.8100   -1.8660    0.0000 C   0  0
    4.3100    1.0000    0.0000 C   0  0
    3.3100    1.0000    0.0000 C   0  0
    5.3100    1.0000    0.0000 C   0  0
    2.7320    0.2170    0.0000 H   0  0
    2.3330   -0.4740    0.0000 H   0  0
    5.2870   -0.4740    0.0000 H   0  0
    4.8880    0.2170    0.0000 H   0  0
    2.3330   -1.2580    0.0000 H   0  0
    2.7320   -1.9490    0.0000 H   0  0
    4.8880   -1.9490    0.0000 H   0  0
    5.2870   -1.2580    0.0000 H   0  0
    3.4120   -2.3410    0.0000 H   0  0
    4.2080   -2.3410    0.0000 H   0  0
    4.4180    1.6110    0.0000 H   0  0
    3.7270    1.2120    0.0000 H   0  0
    3.8930    1.2120    0.0000 H   0  0
    3.2020    1.6110    0.0000 H   0  0
    2.0000    1.5370    0.0000 H   0  0
    2.0000    0.4630    0.0000 H   0  0
    6.4300    1.8660    0.0000 H   0  0
  1 12  1  0
  1 29  1  0
  2 12  2  0
  3 11  1  0
  3 27  1  0
  3 28  1  0
  4  5  1  0
  4  6  1  0
  4 10  1  0
  4 11  1  0
  5  7  1  0
  5 13  1  0
  5 14  1  0
  6  8  1  0
  6 15  1  0
  6 16  1  0
  7  9  1  0
  7 17  1  0
  7 18  1  0
  8  9  1  0
  8 19  1  0
  8 20  1  0
  9 21  1  0
  9 22  1  0
 10 12  1  0
 10 23  1  0
 10 24  1  0
 11 25  1  0
 11 26  1  0
M  END
> <Name>
3446

> <PUBCHEM_COMPOUND_CID>
3446

> <Toxicity>
0

> <Data Set>
TrainingSet

$$$$
10413
  SciTegic12242523262D

 15 14  0  0  0  0            999 V2000
    6.8670    0.2500    0.0000 O   0  0
    2.5370    0.7500    0.0000 O   0  0
    3.4030   -0.7500    0.0000 O   0  0
    5.1350    0.2500    0.0000 C   0  0
    4.2690    0.7500    0.0000 C   0  0
    6.0010    0.7500    0.0000 C   0  0
    3.4030    0.2500    0.0000 C   0  0
    4.7360   -0.2250    0.0000 H   0  0
    5.5340   -0.2250    0.0000 H   0  0
    4.6680    1.2250    0.0000 H   0  0
    3.8700    1.2250    0.0000 H   0  0
    6.4000    1.2250    0.0000 H   0  0
    5.6020    1.2250    0.0000 H   0  0
    7.4040    0.5600    0.0000 H   0  0
    2.0000    0.4400    0.0000 H   0  0
  1  6  1  0
  1 14  1  0
  2  7  1  0
  2 15  1  0
  3  7  2  0
  4  5  1  0
  4  6  1  0
  4  8  1  0
  4  9  1  0
  5  7  1  0
  5 10  1  0
  5 11  1  0
  6 12  1  0
  6 13  1  0
M  END
> <Name>
10413

> <PUBCHEM_COMPOUND_CID>
10413

> <Toxicity>
1

> <Data Set>
TrainingSet

$$$$
60750
  SciTegic12242523262D

 29 30  0  0  1  0            999 V2000
    6.2070   -1.5950    0.0000 F   0  0
    5.8440   -0.4770    0.0000 F   0  0
    3.6380   -1.2860    0.0000 O   0  0
    5.5340   -3.0460    0.0000 O   0  0
    2.3640   -2.9410    0.0000 O   0  0
    6.1790    0.3020    0.0000 O   0  0
    4.4470    0.3020    0.0000 N   0  0
    5.3130    1.8020    0.0000 N   0  0
    4.4470    3.3020    0.0000 N   0  0
    4.9470   -2.2370    0.0000 C   0  0  1  0  0  0
    5.2560   -1.2860    0.0000 C   0  0
    3.9470   -2.2370    0.0000 C   0  0  1  0  0  0
    4.4470   -0.6980    0.0000 C   0  0  1  0  0  0
    3.3590   -3.0460    0.0000 C   0  0
    3.5810    0.8020    0.0000 C   0  0
    5.3130    0.8020    0.0000 C   0  0
    3.5810    1.8020    0.0000 C   0  0
    4.4470    2.3020    0.0000 C   0  0
    4.6650   -2.7890    0.0000 H   0  0
    3.3340   -2.1400    0.0000 H   0  0
    3.8940   -0.4160    0.0000 H   0  0
    3.1880   -3.6420    0.0000 H   0  0
    3.9160   -3.3180    0.0000 H   0  0
    5.2820   -3.6120    0.0000 H   0  0
    3.0440    0.4920    0.0000 H   0  0
    2.0000   -3.4430    0.0000 H   0  0
    3.0440    2.1120    0.0000 H   0  0
    3.9100    3.6120    0.0000 H   0  0
    4.9840    3.6120    0.0000 H   0  0
  1 11  1  0
  2 11  1  0
  3 12  1  0
  3 13  1  0
 10  4  1  6
  4 24  1  0
  5 14  1  0
  5 26  1  0
  6 16  2  0
 13  7  1  1
  7 15  1  0
  7 16  1  0
  8 16  1  0
  8 18  2  0
  9 18  1  0
  9 28  1  0
  9 29  1  0
 10 11  1  0
 10 12  1  0
 10 19  1  1
 11 13  1  0
 12 14  1  1
 12 20  1  6
 13 21  1  6
 14 22  1  0
 14 23  1  0
 15 17  2  0
 15 25  1  0
 17 18  1  0
 17 27  1  0
M  END
> <Name>
60750

> <PUBCHEM_COMPOUND_CID>
60750

> <Toxicity>
1

> <Data Set>
TrainingSet

$$$$
3467
  SciTegic12242523262D

 76 78  0  0  1  0            999 V2000
    5.4640    0.8020    0.0000 O   0  0
    7.1960   -2.1980    0.0000 O   0  0
    5.4640   -1.1980    0.0000 O   0  0
    5.7650    2.5080    0.0000 O   0  0
    5.4640   -2.1980    0.0000 O   0  0
    3.4940    1.1490    0.0000 O   0  0
    4.6120    4.6060    0.0000 O   0  0
    7.5380    1.7420    0.0000 N   0  0
    8.9280   -1.1980    0.0000 N   0  0
    2.8100    3.0290    0.0000 N   0  0
    7.1960   -4.1980    0.0000 N   0  0
    2.8660   -2.6980    0.0000 N   0  0
    6.3300    0.3020    0.0000 C   0  0
    7.1960   -1.1980    0.0000 C   0  0
    6.3300   -0.6980    0.0000 C   0  0
    7.1960    0.8020    0.0000 C   0  0
    8.0620   -0.6980    0.0000 C   0  0
    8.0620    0.3020    0.0000 C   0  0
    5.1220    1.7420    0.0000 C   0  0
    3.7950    2.8550    0.0000 C   0  0
    4.1370    1.9150    0.0000 C   0  0
    6.3300   -2.6980    0.0000 C   0  0
    4.4380    3.6210    0.0000 C   0  0
    6.3300   -3.6980    0.0000 C   0  0
    4.5980   -2.6980    0.0000 C   0  0
    5.4640   -4.1980    0.0000 C   0  0
    5.4230    3.4480    0.0000 C   0  0
    4.5980   -3.6980    0.0000 C   0  0
    3.7320   -2.1980    0.0000 C   0  0
    3.6720    4.2640    0.0000 C   0  0
    3.7320   -1.1980    0.0000 C   0  0
    2.1680    2.2630    0.0000 C   0  0
    2.0000   -2.1980    0.0000 C   0  0
    6.3300    0.9220    0.0000 H   0  0
    7.7330   -1.5080    0.0000 H   0  0
    5.7930   -0.3880    0.0000 H   0  0
    6.7210    1.2010    0.0000 H   0  0
    8.5990   -0.3880    0.0000 H   0  0
    8.6730    0.1940    0.0000 H   0  0
    8.2740    0.8850    0.0000 H   0  0
    4.7240    1.2670    0.0000 H   0  0
    3.5830    3.4380    0.0000 H   0  0
    3.5270    2.0230    0.0000 H   0  0
    6.3300   -2.0780    0.0000 H   0  0
    6.3300   -4.3180    0.0000 H   0  0
    4.5980   -2.0780    0.0000 H   0  0
    5.0660   -4.6730    0.0000 H   0  0
    5.8630   -4.6730    0.0000 H   0  0
    6.0330    3.5550    0.0000 H   0  0
    5.4230    4.0680    0.0000 H   0  0
    3.9880   -3.5900    0.0000 H   0  0
    4.3860   -4.2810    0.0000 H   0  0
    8.1490    1.8490    0.0000 H   0  0
    7.1400    2.2170    0.0000 H   0  0
    9.4650   -0.8880    0.0000 H   0  0
    8.9280   -1.8180    0.0000 H   0  0
    4.9270   -0.8880    0.0000 H   0  0
    3.7320   -2.8180    0.0000 H   0  0
    4.0700    4.7390    0.0000 H   0  0
    3.1970    4.6620    0.0000 H   0  0
    3.2740    3.7890    0.0000 H   0  0
    2.5980    3.6110    0.0000 H   0  0
    7.1960   -4.8180    0.0000 H   0  0
    7.7330   -3.8880    0.0000 H   0  0
    3.7060    0.5670    0.0000 H   0  0
    5.1940    4.8180    0.0000 H   0  0
    4.3520   -1.1980    0.0000 H   0  0
    3.7320   -0.5780    0.0000 H   0  0
    3.1120   -1.1980    0.0000 H   0  0
    2.8660   -3.3180    0.0000 H   0  0
    1.6930    2.6610    0.0000 H   0  0
    1.7690    1.7880    0.0000 H   0  0
    2.6430    1.8640    0.0000 H   0  0
    2.3100   -1.6610    0.0000 H   0  0
    1.4630   -1.8880    0.0000 H   0  0
    1.6900   -2.7350    0.0000 H   0  0
  1 13  1  0
  1 19  1  0
  2 14  1  0
  2 22  1  0
  3 15  1  0
  3 57  1  0
  4 19  1  0
  4 27  1  0
  5 22  1  0
  5 25  1  0
  6 21  1  0
  6 65  1  0
  7 23  1  0
  7 66  1  0
  8 16  1  0
  8 53  1  0
  8 54  1  0
  9 17  1  0
  9 55  1  0
  9 56  1  0
 10 20  1  0
 10 32  1  0
 10 62  1  0
 11 24  1  0
 11 63  1  0
 11 64  1  0
 12 29  1  0
 12 33  1  0
 12 70  1  0
 13 15  1  0
 13 16  1  0
 13 34  1  0
 14 15  1  0
 14 17  1  0
 14 35  1  0
 15 36  1  0
 16 18  1  0
 16 37  1  0
 17 18  1  0
 17 38  1  0
 18 39  1  0
 18 40  1  0
 19 21  1  0
 19 41  1  0
 20 21  1  0
 20 23  1  0
 20 42  1  0
 21 43  1  0
 22 24  1  0
 22 44  1  0
 23 27  1  0
 23 30  1  0
 24 26  1  0
 24 45  1  0
 25 28  1  0
 25 29  1  0
 25 46  1  0
 26 28  1  0
 26 47  1  0
 26 48  1  0
 27 49  1  0
 27 50  1  0
 28 51  1  0
 28 52  1  0
 29 31  1  0
 29 58  1  0
 30 59  1  0
 30 60  1  0
 30 61  1  0
 31 67  1  0
 31 68  1  0
 31 69  1  0
 32 71  1  0
 32 72  1  0
 32 73  1  0
 33 74  1  0
 33 75  1  0
 33 76  1  0
M  END
> <Name>
3467

> <PUBCHEM_COMPOUND_CID>
3467

> <Toxicity>
0

> <Data Set>
TrainingSet

$$$$
11057
  SciTegic12242523262D

 58 60  0  0  0  0            999 V2000
    8.3310    9.5370    0.0000 N   0  0
    1.4030    9.5370    0.0000 N   0  0
    4.8670    3.5370    0.0000 N   0  3
    4.8670    7.5370    0.0000 C   0  0
    5.7330    8.0370    0.0000 C   0  0
    4.0010    8.0370    0.0000 C   0  0
    4.8670    6.5370    0.0000 C   0  0
    6.5990    7.5370    0.0000 C   0  0
    3.1350    7.5370    0.0000 C   0  0
    5.7330    9.0370    0.0000 C   0  0
    4.0010    9.0370    0.0000 C   0  0
    5.7330    6.0370    0.0000 C   0  0
    4.0010    6.0370    0.0000 C   0  0
    7.4650    9.0370    0.0000 C   0  0
    2.2690    9.0370    0.0000 C   0  0
    4.8670    4.5370    0.0000 C   0  0
    7.4650    8.0370    0.0000 C   0  0
    2.2690    8.0370    0.0000 C   0  0
    6.5990    9.5370    0.0000 C   0  0
    3.1350    9.5370    0.0000 C   0  0
    5.7330    5.0370    0.0000 C   0  0
    4.0010    5.0370    0.0000 C   0  0
    8.3310   10.5370    0.0000 C   0  0
    9.1970    9.0370    0.0000 C   0  0
    1.4030   10.5370    0.0000 C   0  0
    0.5370    9.0370    0.0000 C   0  0
    4.0010    3.0370    0.0000 C   0  0
    5.7330    3.0370    0.0000 C   0  0
    6.5990    6.9170    0.0000 H   0  0
    3.1350    6.9170    0.0000 H   0  0
    5.1960    9.3470    0.0000 H   0  0
    4.5380    9.3470    0.0000 H   0  0
    6.2700    6.3470    0.0000 H   0  0
    3.4640    6.3470    0.0000 H   0  0
    8.0020    7.7270    0.0000 H   0  0
    1.7320    7.7270    0.0000 H   0  0
    6.5990   10.1570    0.0000 H   0  0
    3.1350   10.1570    0.0000 H   0  0
    6.2700    4.7270    0.0000 H   0  0
    3.4640    4.7270    0.0000 H   0  0
    8.9510   10.5370    0.0000 H   0  0
    8.3310   11.1570    0.0000 H   0  0
    7.7110   10.5370    0.0000 H   0  0
    8.8870    8.5000    0.0000 H   0  0
    9.7340    8.7270    0.0000 H   0  0
    9.5070    9.5740    0.0000 H   0  0
    2.0230   10.5370    0.0000 H   0  0
    1.4030   11.1570    0.0000 H   0  0
    0.7830   10.5370    0.0000 H   0  0
    0.2270    9.5740    0.0000 H   0  0
    0.0000    8.7270    0.0000 H   0  0
    0.8470    8.5000    0.0000 H   0  0
    3.6910    3.5740    0.0000 H   0  0
    3.4640    2.7270    0.0000 H   0  0
    4.3110    2.5000    0.0000 H   0  0
    5.4230    2.5000    0.0000 H   0  0
    6.2700    2.7270    0.0000 H   0  0
    6.0430    3.5740    0.0000 H   0  0
  1 14  1  0
  1 23  1  0
  1 24  1  0
  2 15  1  0
  2 25  1  0
  2 26  1  0
  3 16  2  0
  3 27  1  0
  3 28  1  0
  4  5  1  0
  4  6  1  0
  4  7  2  0
  5  8  2  0
  5 10  1  0
  6  9  2  0
  6 11  1  0
  7 12  1  0
  7 13  1  0
  8 17  1  0
  8 29  1  0
  9 18  1  0
  9 30  1  0
 10 19  2  0
 10 31  1  0
 11 20  2  0
 11 32  1  0
 12 21  2  0
 12 33  1  0
 13 22  2  0
 13 34  1  0
 14 17  2  0
 14 19  1  0
 15 18  2  0
 15 20  1  0
 16 21  1  0
 16 22  1  0
 17 35  1  0
 18 36  1  0
 19 37  1  0
 20 38  1  0
 21 39  1  0
 22 40  1  0
 23 41  1  0
 23 42  1  0
 23 43  1  0
 24 44  1  0
 24 45  1  0
 24 46  1  0
 25 47  1  0
 25 48  1  0
 25 49  1  0
 26 50  1  0
 26 51  1  0
 26 52  1  0
 27 53  1  0
 27 54  1  0
 27 55  1  0
 28 56  1  0
 28 57  1  0
 28 58  1  0
M  CHG  1   3   1
M  END
> <Name>
11057

> <PUBCHEM_COMPOUND_CID>
11057

> <Toxicity>
0

> <Data Set>
TrainingSet

$$$$
3478
  SciTegic12242523262D

 58 60  0  0  0  0            999 V2000
    4.5980    2.7500    0.0000 S   0  0
    6.3300    3.7500    0.0000 O   0  0
    5.5980    2.7500    0.0000 O   0  0
    3.5980    2.7500    0.0000 O   0  0
    2.0000   -2.7500    0.0000 O   0  0
    5.4640    5.2500    0.0000 N   0  0
    4.5980    3.7500    0.0000 N   0  0
    3.7320   -2.7500    0.0000 N   0  0
    3.7320   -4.7500    0.0000 N   0  0
    2.0000   -5.7500    0.0000 N   0  0
    6.3300    5.7500    0.0000 C   0  0
    7.1960    5.2500    0.0000 C   0  0
    6.3300    6.7500    0.0000 C   0  0
    8.0620    5.7500    0.0000 C   0  0
    7.1960    7.2500    0.0000 C   0  0
    8.0620    6.7500    0.0000 C   0  0
    5.4640    4.2500    0.0000 C   0  0
    4.5980    1.7500    0.0000 C   0  0
    4.5980   -0.2500    0.0000 C   0  0
    5.4640    1.2500    0.0000 C   0  0
    3.7320    1.2500    0.0000 C   0  0
    4.5980   -1.2500    0.0000 C   0  0
    5.4640    0.2500    0.0000 C   0  0
    3.7320    0.2500    0.0000 C   0  0
    3.7320   -1.7500    0.0000 C   0  0
    2.8660   -3.2500    0.0000 C   0  0
    2.8660   -4.2500    0.0000 C   0  0
    2.0000   -4.7500    0.0000 C   0  0
    2.8660   -6.2500    0.0000 C   0  0
    3.7320   -5.7500    0.0000 C   0  0
    2.8660   -7.2500    0.0000 C   0  0
    5.7930    6.0600    0.0000 H   0  0
    6.7980    4.7750    0.0000 H   0  0
    7.5950    4.7750    0.0000 H   0  0
    6.1180    7.3330    0.0000 H   0  0
    5.7200    6.6420    0.0000 H   0  0
    8.2740    5.1670    0.0000 H   0  0
    8.6730    5.8580    0.0000 H   0  0
    7.5950    7.7250    0.0000 H   0  0
    6.7980    7.7250    0.0000 H   0  0
    8.6730    6.6420    0.0000 H   0  0
    8.2740    7.3330    0.0000 H   0  0
    4.9270    5.5600    0.0000 H   0  0
    4.0610    4.0600    0.0000 H   0  0
    4.8100   -1.8330    0.0000 H   0  0
    5.2090   -1.1420    0.0000 H   0  0
    6.0010    1.5600    0.0000 H   0  0
    3.1950    1.5600    0.0000 H   0  0
    6.0010   -0.0600    0.0000 H   0  0
    3.1950   -0.0600    0.0000 H   0  0
    3.5200   -1.1670    0.0000 H   0  0
    3.1220   -1.8580    0.0000 H   0  0
    4.2690   -3.0600    0.0000 H   0  0
    1.4630   -4.4400    0.0000 H   0  0
    4.2690   -6.0600    0.0000 H   0  0
    2.2460   -7.2500    0.0000 H   0  0
    2.8660   -7.8700    0.0000 H   0  0
    3.4860   -7.2500    0.0000 H   0  0
  1  3  2  0
  1  4  2  0
  1  7  1  0
  1 18  1  0
  2 17  2  0
  5 26  2  0
  6 11  1  0
  6 17  1  0
  6 43  1  0
  7 17  1  0
  7 44  1  0
  8 25  1  0
  8 26  1  0
  8 53  1  0
  9 27  2  0
  9 30  1  0
 10 28  2  0
 10 29  1  0
 11 12  1  0
 11 13  1  0
 11 32  1  0
 12 14  1  0
 12 33  1  0
 12 34  1  0
 13 15  1  0
 13 35  1  0
 13 36  1  0
 14 16  1  0
 14 37  1  0
 14 38  1  0
 15 16  1  0
 15 39  1  0
 15 40  1  0
 16 41  1  0
 16 42  1  0
 18 20  2  0
 18 21  1  0
 19 22  1  0
 19 23  2  0
 19 24  1  0
 20 23  1  0
 20 47  1  0
 21 24  2  0
 21 48  1  0
 22 25  1  0
 22 45  1  0
 22 46  1  0
 23 49  1  0
 24 50  1  0
 25 51  1  0
 25 52  1  0
 26 27  1  0
 27 28  1  0
 28 54  1  0
 29 30  2  0
 29 31  1  0
 30 55  1  0
 31 56  1  0
 31 57  1  0
 31 58  1  0
M  END
> <Name>
3478

> <PUBCHEM_COMPOUND_CID>
3478

> <Toxicity>
0

> <Data Set>
TrainingSet

$$$$
3488
  SciTegic12242523262D

 61 63  0  0  0  0            999 V2000
    6.3300   -6.7500    0.0000 Cl  0  0
    6.3300    2.2500    0.0000 S   0  0
    8.0620    3.2500    0.0000 O   0  0
    7.3300    2.2500    0.0000 O   0  0
    5.3300    2.2500    0.0000 O   0  0
    3.7320   -3.2500    0.0000 O   0  0
    2.8660   -4.7500    0.0000 O   0  0
    7.1960    4.7500    0.0000 N   0  0
    6.3300    3.2500    0.0000 N   0  0
    5.4640   -3.2500    0.0000 N   0  0
    8.0620    5.2500    0.0000 C   0  0
    8.9280    4.7500    0.0000 C   0  0
    8.0620    6.2500    0.0000 C   0  0
    9.7940    5.2500    0.0000 C   0  0
    8.9280    6.7500    0.0000 C   0  0
    9.7940    6.2500    0.0000 C   0  0
    7.1960    3.7500    0.0000 C   0  0
    6.3300    1.2500    0.0000 C   0  0
    6.3300   -0.7500    0.0000 C   0  0
    6.3300   -1.7500    0.0000 C   0  0
    7.1960    0.7500    0.0000 C   0  0
    5.4640    0.7500    0.0000 C   0  0
    7.1960   -0.2500    0.0000 C   0  0
    5.4640   -0.2500    0.0000 C   0  0
    5.4640   -2.2500    0.0000 C   0  0
    4.5980   -3.7500    0.0000 C   0  0
    4.5980   -4.7500    0.0000 C   0  0
    3.7320   -5.2500    0.0000 C   0  0
    5.4640   -5.2500    0.0000 C   0  0
    3.7320   -6.2500    0.0000 C   0  0
    5.4640   -6.2500    0.0000 C   0  0
    4.5980   -6.7500    0.0000 C   0  0
    2.0000   -5.2500    0.0000 C   0  0
    8.0620    4.6300    0.0000 H   0  0
    8.5300    4.2750    0.0000 H   0  0
    9.3270    4.2750    0.0000 H   0  0
    7.8500    6.8330    0.0000 H   0  0
    7.4520    6.1420    0.0000 H   0  0
   10.0060    4.6670    0.0000 H   0  0
   10.4050    5.3580    0.0000 H   0  0
    9.3270    7.2250    0.0000 H   0  0
    8.5300    7.2250    0.0000 H   0  0
   10.4050    6.1420    0.0000 H   0  0
   10.0060    6.8330    0.0000 H   0  0
    6.6590    5.0600    0.0000 H   0  0
    5.7930    3.5600    0.0000 H   0  0
    6.5420   -2.3330    0.0000 H   0  0
    6.9410   -1.6420    0.0000 H   0  0
    7.7330    1.0600    0.0000 H   0  0
    4.9270    1.0600    0.0000 H   0  0
    7.7330   -0.5600    0.0000 H   0  0
    4.9270   -0.5600    0.0000 H   0  0
    5.2520   -1.6670    0.0000 H   0  0
    4.8540   -2.3580    0.0000 H   0  0
    6.0010   -3.5600    0.0000 H   0  0
    6.0010   -4.9400    0.0000 H   0  0
    3.1950   -6.5600    0.0000 H   0  0
    4.5980   -7.3700    0.0000 H   0  0
    1.6900   -4.7130    0.0000 H   0  0
    1.4630   -5.5600    0.0000 H   0  0
    2.3100   -5.7870    0.0000 H   0  0
  1 31  1  0
  2  4  2  0
  2  5  2  0
  2  9  1  0
  2 18  1  0
  3 17  2  0
  6 26  2  0
  7 28  1  0
  7 33  1  0
  8 11  1  0
  8 17  1  0
  8 45  1  0
  9 17  1  0
  9 46  1  0
 10 25  1  0
 10 26  1  0
 10 55  1  0
 11 12  1  0
 11 13  1  0
 11 34  1  0
 12 14  1  0
 12 35  1  0
 12 36  1  0
 13 15  1  0
 13 37  1  0
 13 38  1  0
 14 16  1  0
 14 39  1  0
 14 40  1  0
 15 16  1  0
 15 41  1  0
 15 42  1  0
 16 43  1  0
 16 44  1  0
 18 21  2  0
 18 22  1  0
 19 20  1  0
 19 23  2  0
 19 24  1  0
 20 25  1  0
 20 47  1  0
 20 48  1  0
 21 23  1  0
 21 49  1  0
 22 24  2  0
 22 50  1  0
 23 51  1  0
 24 52  1  0
 25 53  1  0
 25 54  1  0
 26 27  1  0
 27 28  2  0
 27 29  1  0
 28 30  1  0
 29 31  2  0
 29 56  1  0
 30 32  2  0
 30 57  1  0
 31 32  1  0
 32 58  1  0
 33 59  1  0
 33 60  1  0
 33 61  1  0
M  END
> <Name>
3488

> <PUBCHEM_COMPOUND_CID>
3488

> <Toxicity>
0

> <Data Set>
TrainingSet

$$$$
5462328
  SciTegic12242523262D

 50 54  0  0  1  0            999 V2000
    3.0970    0.0530    0.0000 O   0  0
    2.8660   -2.4020    0.0000 O   0  0
    2.8660    2.4020    0.0000 O   0  0
    3.7320   -3.9020    0.0000 O   0  0
    3.7320    3.9020    0.0000 O   0  0
    7.0270   -0.9510    0.0000 N   0  0
    4.5560   -0.4760    0.0000 C   0  0  1  0  0  0
    5.3790   -0.9510    0.0000 C   0  0  2  0  0  0
    6.2030   -0.4760    0.0000 C   0  0  1  0  0  0
    3.7320   -0.9510    0.0000 C   0  0  2  0  0  0
    5.1050    0.2220    0.0000 C   0  0
    4.5560    0.4760    0.0000 C   0  0
    6.2030    0.4760    0.0000 C   0  0
    6.4580    0.2220    0.0000 C   0  0
    5.3790    0.9510    0.0000 C   0  0
    3.7320   -1.9020    0.0000 C   0  0  2  0  0  0
    5.3790   -1.9020    0.0000 C   0  0
    3.7320    0.9510    0.0000 C   0  0
    4.5560   -2.3780    0.0000 C   0  0
    7.7080   -1.6830    0.0000 C   0  0
    5.3790    1.9020    0.0000 C   0  0
    3.7320    1.9020    0.0000 C   0  0
    4.5560    2.3780    0.0000 C   0  0
    2.8660   -3.4020    0.0000 C   0  0
    2.0000   -3.9020    0.0000 C   0  0
    2.8660    3.4020    0.0000 C   0  0
    2.0000    3.9020    0.0000 C   0  0
    5.9260   -1.6020    0.0000 H   0  0
    6.4940   -1.2740    0.0000 H   0  0
    2.9160   -1.1880    0.0000 H   0  0
    5.2420    0.8270    0.0000 H   0  0
    4.5460    0.4890    0.0000 H   0  0
    6.8140    0.3680    0.0000 H   0  0
    6.4150    1.0580    0.0000 H   0  0
    7.0500    0.4060    0.0000 H   0  0
    6.3650    0.8350    0.0000 H   0  0
    3.7320   -2.5220    0.0000 H   0  0
    5.9160   -2.2120    0.0000 H   0  0
    4.5560   -2.9980    0.0000 H   0  0
    7.2540   -2.1060    0.0000 H   0  0
    8.1300   -2.1370    0.0000 H   0  0
    8.1620   -1.2610    0.0000 H   0  0
    5.9160    2.2120    0.0000 H   0  0
    4.5560    2.9980    0.0000 H   0  0
    1.6900   -3.3650    0.0000 H   0  0
    1.4630   -4.2120    0.0000 H   0  0
    2.3100   -4.4390    0.0000 H   0  0
    2.3100    4.4390    0.0000 H   0  0
    1.4630    4.2120    0.0000 H   0  0
    1.6900    3.3650    0.0000 H   0  0
  1 10  1  0
  1 18  1  0
 16  2  1  6
  2 24  1  0
  3 22  1  0
  3 26  1  0
  4 24  2  0
  5 26  2  0
  6  9  1  0
  6 14  1  0
  6 20  1  0
  7  8  1  0
  7 10  1  0
  7 11  1  1
  7 12  1  0
  8  9  1  0
  8 17  1  0
  8 28  1  1
  9 13  1  0
  9 29  1  6
 10 16  1  0
 10 30  1  1
 11 14  1  0
 11 31  1  0
 11 32  1  0
 12 15  1  0
 12 18  2  0
 13 15  1  0
 13 33  1  0
 13 34  1  0
 14 35  1  0
 14 36  1  0
 15 21  2  0
 16 19  1  0
 16 37  1  1
 17 19  2  0
 17 38  1  0
 18 22  1  0
 19 39  1  0
 20 40  1  0
 20 41  1  0
 20 42  1  0
 21 23  1  0
 21 43  1  0
 22 23  2  0
 23 44  1  0
 24 25  1  0
 25 45  1  0
 25 46  1  0
 25 47  1  0
 26 27  1  0
 27 48  1  0
 27 49  1  0
 27 50  1  0
M  END
> <Name>
5462328

> <PUBCHEM_COMPOUND_CID>
5462328

> <Toxicity>
1

> <Data Set>
TrainingSet

$$$$
3598
  SciTegic12242523262D

 27 28  0  0  0  0            999 V2000
    6.2390    0.1420    0.0000 Cl  0  0
    6.1200   -1.8790    0.0000 Cl  0  0
    3.6680    3.2060    0.0000 Cl  0  0
    2.5370   -3.2060    0.0000 Cl  0  0
    6.9230    2.0210    0.0000 Cl  0  0
    6.0010   -3.2060    0.0000 Cl  0  0
    2.9830    1.3260    0.0000 O   0  0
    2.5370   -1.2060    0.0000 O   0  0
    4.2690   -0.2060    0.0000 C   0  0
    4.6110    0.7340    0.0000 C   0  0
    4.2690   -1.2060    0.0000 C   0  0
    3.9680    1.5000    0.0000 C   0  0
    3.4030   -1.7060    0.0000 C   0  0
    5.5960    0.9080    0.0000 C   0  0
    5.1350   -1.7060    0.0000 C   0  0
    4.3100    2.4400    0.0000 C   0  0
    3.4030   -2.7060    0.0000 C   0  0
    5.9380    1.8470    0.0000 C   0  0
    5.1350   -2.7060    0.0000 C   0  0
    5.2950    2.6130    0.0000 C   0  0
    4.2690   -3.2060    0.0000 C   0  0
    3.8180    0.2200    0.0000 H   0  0
    4.8800   -0.3130    0.0000 H   0  0
    5.5070    3.1960    0.0000 H   0  0
    4.2690   -3.8260    0.0000 H   0  0
    2.5850    1.8010    0.0000 H   0  0
    2.0000   -1.5160    0.0000 H   0  0
  1 14  1  0
  2 15  1  0
  3 16  1  0
  4 17  1  0
  5 18  1  0
  6 19  1  0
  7 12  1  0
  7 26  1  0
  8 13  1  0
  8 27  1  0
  9 10  1  0
  9 11  1  0
  9 22  1  0
  9 23  1  0
 10 12  2  0
 10 14  1  0
 11 13  2  0
 11 15  1  0
 12 16  1  0
 13 17  1  0
 14 18  2  0
 15 19  2  0
 16 20  2  0
 17 21  2  0
 18 20  1  0
 19 21  1  0
 20 24  1  0
 21 25  1  0
M  END
> <Name>
3598

> <PUBCHEM_COMPOUND_CID>
3598

> <Toxicity>
1

> <Data Set>
TrainingSet

$$$$
3637
  SciTegic12242523262D

 20 21  0  0  0  0            999 V2000
    4.6660   -0.9570    0.0000 N   0  0
    5.5320    0.5430    0.0000 N   0  0
    5.5320    1.5430    0.0000 N   0  0
    5.5320   -1.4570    0.0000 N   0  0
    3.8000    0.5430    0.0000 C   0  0
    3.8000    1.5430    0.0000 C   0  0
    4.6660    0.0430    0.0000 C   0  0
    2.9060    0.0080    0.0000 C   0  0
    2.9060    2.0770    0.0000 C   0  0
    2.0000    0.5220    0.0000 C   0  0
    4.6660    2.0430    0.0000 C   0  0
    2.0000    1.5640    0.0000 C   0  0
    2.9130   -0.6120    0.0000 H   0  0
    2.9130    2.6970    0.0000 H   0  0
    4.6660    2.6630    0.0000 H   0  0
    1.4640    0.2100    0.0000 H   0  0
    1.4640    1.8760    0.0000 H   0  0
    4.1290   -1.2670    0.0000 H   0  0
    5.5320   -2.0770    0.0000 H   0  0
    6.0690   -1.1470    0.0000 H   0  0
  1  4  1  0
  1  7  1  0
  1 18  1  0
  2  3  1  0
  2  7  2  0
  3 11  2  0
  4 19  1  0
  4 20  1  0
  5  6  2  0
  5  7  1  0
  5  8  1  0
  6  9  1  0
  6 11  1  0
  8 10  2  0
  8 13  1  0
  9 12  2  0
  9 14  1  0
 10 12  1  0
 10 16  1  0
 11 15  1  0
 12 17  1  0
M  END
> <Name>
3637

> <PUBCHEM_COMPOUND_CID>
3637

> <Toxicity>
0

> <Data Set>
TrainingSet

$$$$
3639
  SciTegic12242523262D

 25 26  0  0  0  0            999 V2000
    3.4030    1.2330    0.0000 Cl  0  0
    6.8950   -0.8020    0.0000 S   0  0
    3.4030   -0.7670    0.0000 S   0  0
    7.3850   -1.6740    0.0000 O   0  0
    6.3850   -1.6620    0.0000 O   0  0
    3.9030   -1.6330    0.0000 O   0  0
    2.9030    0.0990    0.0000 O   0  0
    7.8010   -0.2880    0.0000 N   0  0
    6.8950    1.2670    0.0000 N   0  0
    2.5370   -1.2670    0.0000 N   0  0
    6.0010   -0.2670    0.0000 C   0  0
    6.0010    0.7330    0.0000 C   0  0
    7.8010    0.7540    0.0000 C   0  0
    5.1350   -0.7670    0.0000 C   0  0
    4.2690   -0.2670    0.0000 C   0  0
    5.1350    1.2330    0.0000 C   0  0
    4.2690    0.7330    0.0000 C   0  0
    8.4120    0.6470    0.0000 H   0  0
    8.0100    1.3370    0.0000 H   0  0
    5.1350   -1.3870    0.0000 H   0  0
    8.3370   -0.6000    0.0000 H   0  0
    6.8880    1.8870    0.0000 H   0  0
    5.1350    1.8530    0.0000 H   0  0
    2.0000   -0.9570    0.0000 H   0  0
    2.5370   -1.8870    0.0000 H   0  0
  1 17  1  0
  2  4  2  0
  2  5  2  0
  2  8  1  0
  2 11  1  0
  3  6  2  0
  3  7  2  0
  3 10  1  0
  3 15  1  0
  8 13  1  0
  8 21  1  0
  9 12  1  0
  9 13  1  0
  9 22  1  0
 10 24  1  0
 10 25  1  0
 11 12  1  0
 11 14  2  0
 12 16  2  0
 13 18  1  0
 13 19  1  0
 14 15  1  0
 14 20  1  0
 15 17  2  0
 16 17  1  0
 16 23  1  0
M  END
> <Name>
3639

> <PUBCHEM_COMPOUND_CID>
3639

> <Toxicity>
0

> <Data Set>
TrainingSet

$$$$
3652
  SciTegic12242523262D

 49 50  0  0  1  0            999 V2000
    2.0000   -4.6620    0.0000 Cl  0  0
    8.9940    4.3620    0.0000 O   0  0
    8.1280    1.8620    0.0000 N   0  0
    5.5300   -1.6380    0.0000 N   0  0
    5.5300   -4.6380    0.0000 N   0  0
    6.3960   -0.1380    0.0000 C   0  0
    7.2620    0.3620    0.0000 C   0  0
    6.3960   -1.1380    0.0000 C   0  0
    7.2620    1.3620    0.0000 C   0  0
    8.1280    2.8620    0.0000 C   0  0
    7.2620   -1.6380    0.0000 C   0  0
    8.9940    1.3620    0.0000 C   0  0
    5.5300   -2.6380    0.0000 C   0  0
    8.9940    3.3620    0.0000 C   0  0
    9.8600    1.8620    0.0000 C   0  0
    4.6640   -3.1380    0.0000 C   0  0
    6.3960   -3.1380    0.0000 C   0  0
    4.6640   -4.1380    0.0000 C   0  0
    3.7700   -2.6030    0.0000 C   0  0
    6.3960   -4.1380    0.0000 C   0  0
    3.7700   -4.6720    0.0000 C   0  0
    2.8640   -3.1170    0.0000 C   0  0
    2.8640   -4.1580    0.0000 C   0  0
    6.1840    0.4450    0.0000 H   0  0
    5.7860   -0.2450    0.0000 H   0  0
    7.4740   -0.2200    0.0000 H   0  0
    7.8730    0.4700    0.0000 H   0  0
    5.8590   -0.8280    0.0000 H   0  0
    7.0500    1.9450    0.0000 H   0  0
    6.6520    1.2550    0.0000 H   0  0
    4.9930   -1.3280    0.0000 H   0  0
    7.9160    3.4450    0.0000 H   0  0
    7.5180    2.7550    0.0000 H   0  0
    6.9520   -2.1750    0.0000 H   0  0
    7.7990   -1.9480    0.0000 H   0  0
    7.5720   -1.1010    0.0000 H   0  0
    8.5960    0.8870    0.0000 H   0  0
    9.3930    0.8870    0.0000 H   0  0
    9.2060    2.7800    0.0000 H   0  0
    9.6050    3.4700    0.0000 H   0  0
   10.1700    1.3250    0.0000 H   0  0
   10.3970    2.1720    0.0000 H   0  0
    9.5500    2.3990    0.0000 H   0  0
    6.9330   -2.8280    0.0000 H   0  0
    3.7770   -1.9830    0.0000 H   0  0
    6.9330   -4.4480    0.0000 H   0  0
    3.7770   -5.2920    0.0000 H   0  0
    2.3280   -2.8050    0.0000 H   0  0
    9.5310    4.6720    0.0000 H   0  0
  1 23  1  0
  2 14  1  0
  2 49  1  0
  3  9  1  0
  3 10  1  0
  3 12  1  0
  4  8  1  0
  4 13  1  0
  4 31  1  0
  5 18  2  0
  5 20  1  0
  6  7  1  0
  6  8  1  0
  6 24  1  0
  6 25  1  0
  7  9  1  0
  7 26  1  0
  7 27  1  0
  8 11  1  0
  8 28  1  0
  9 29  1  0
  9 30  1  0
 10 14  1  0
 10 32  1  0
 10 33  1  0
 11 34  1  0
 11 35  1  0
 11 36  1  0
 12 15  1  0
 12 37  1  0
 12 38  1  0
 13 16  2  0
 13 17  1  0
 14 39  1  0
 14 40  1  0
 15 41  1  0
 15 42  1  0
 15 43  1  0
 16 18  1  0
 16 19  1  0
 17 20  2  0
 17 44  1  0
 18 21  1  0
 19 22  2  0
 19 45  1  0
 20 46  1  0
 21 23  2  0
 21 47  1  0
 22 23  1  0
 22 48  1  0
M  END
> <Name>
3652

> <PUBCHEM_COMPOUND_CID>
3652

> <Toxicity>
0

> <Data Set>
TrainingSet

$$$$
144
  SciTegic12242523262D

 28 29  0  0  1  0            999 V2000
    2.5370   -0.1570    0.0000 O   0  0
    8.6600    1.9620    0.0000 O   0  0
    7.0130    2.5000    0.0000 O   0  0
    6.0810   -1.9620    0.0000 N   0  0
    8.0380    0.0600    0.0000 N   0  0
    6.0810   -0.3520    0.0000 C   0  0
    6.3920    0.5980    0.0000 C   0  0
    5.1350   -0.6570    0.0000 C   0  0
    7.3700    0.8050    0.0000 C   0  0
    5.1350   -1.6570    0.0000 C   0  0
    6.6650   -1.1570    0.0000 C   0  0
    4.2690   -0.1570    0.0000 C   0  0
    4.2690   -2.1570    0.0000 C   0  0
    3.4030   -0.6570    0.0000 C   0  0
    3.4030   -1.6570    0.0000 C   0  0
    7.6810    1.7550    0.0000 C   0  0
    6.3710    1.2180    0.0000 H   0  0
    5.7780    0.6860    0.0000 H   0  0
    7.9770    0.9330    0.0000 H   0  0
    7.2850   -1.1570    0.0000 H   0  0
    6.2740   -2.5510    0.0000 H   0  0
    4.2690    0.4630    0.0000 H   0  0
    4.2690   -2.7770    0.0000 H   0  0
    2.8660   -1.9670    0.0000 H   0  0
    8.6450    0.1880    0.0000 H   0  0
    7.8460   -0.5290    0.0000 H   0  0
    2.0000   -0.4670    0.0000 H   0  0
    8.8520    2.5510    0.0000 H   0  0
  1 14  1  0
  1 27  1  0
  2 16  1  0
  2 28  1  0
  3 16  2  0
  4 10  1  0
  4 11  1  0
  4 21  1  0
  5  9  1  0
  5 25  1  0
  5 26  1  0
  6  7  1  0
  6  8  1  0
  6 11  2  0
  7  9  1  0
  7 17  1  0
  7 18  1  0
  8 10  2  0
  8 12  1  0
  9 16  1  0
  9 19  1  0
 10 13  1  0
 11 20  1  0
 12 14  2  0
 12 22  1  0
 13 15  2  0
 13 23  1  0
 14 15  1  0
 15 24  1  0
M  END
> <Name>
144

> <PUBCHEM_COMPOUND_CID>
144

> <Toxicity>
1

> <Data Set>
TrainingSet

$$$$
3658
  SciTegic12242523262D

 53 55  0  0  1  0            999 V2000
    2.0000   -5.0600    0.0000 Cl  0  0
    6.3300    2.4400    0.0000 O   0  0
    8.0620    4.4400    0.0000 O   0  0
    5.4640   -2.0600    0.0000 N   0  0
    5.4640   -0.0600    0.0000 N   0  0
    4.5980   -1.5600    0.0000 C   0  0
    6.3300   -1.5600    0.0000 C   0  0
    4.5980   -0.5600    0.0000 C   0  0
    6.3300   -0.5600    0.0000 C   0  0
    5.4640   -3.0600    0.0000 C   0  0
    5.4640    0.9400    0.0000 C   0  0
    4.5980   -3.5600    0.0000 C   0  0
    6.3300   -3.5600    0.0000 C   0  0
    6.3300    1.4400    0.0000 C   0  0
    3.7320   -3.0600    0.0000 C   0  0
    4.5980   -4.5600    0.0000 C   0  0
    6.3300   -4.5600    0.0000 C   0  0
    7.1960   -3.0600    0.0000 C   0  0
    2.8660   -3.5600    0.0000 C   0  0
    3.7320   -5.0600    0.0000 C   0  0
    7.1960   -5.0600    0.0000 C   0  0
    8.0620   -3.5600    0.0000 C   0  0
    2.8660   -4.5600    0.0000 C   0  0
    8.0620   -4.5600    0.0000 C   0  0
    7.1960    2.9400    0.0000 C   0  0
    7.1960    3.9400    0.0000 C   0  0
    3.9880   -1.4520    0.0000 H   0  0
    4.3860   -2.1430    0.0000 H   0  0
    6.5420   -2.1430    0.0000 H   0  0
    6.9410   -1.4520    0.0000 H   0  0
    4.3860    0.0230    0.0000 H   0  0
    3.9880   -0.6680    0.0000 H   0  0
    6.9410   -0.6680    0.0000 H   0  0
    6.5420    0.0230    0.0000 H   0  0
    5.4640   -3.6800    0.0000 H   0  0
    5.2520    1.5230    0.0000 H   0  0
    4.8540    0.8320    0.0000 H   0  0
    6.5420    0.8570    0.0000 H   0  0
    6.9410    1.5480    0.0000 H   0  0
    3.7320   -2.4400    0.0000 H   0  0
    5.1350   -4.8700    0.0000 H   0  0
    5.7930   -4.8700    0.0000 H   0  0
    7.1960   -2.4400    0.0000 H   0  0
    2.3290   -3.2500    0.0000 H   0  0
    3.7320   -5.6800    0.0000 H   0  0
    7.1960   -5.6800    0.0000 H   0  0
    8.5990   -3.2500    0.0000 H   0  0
    8.5990   -4.8700    0.0000 H   0  0
    7.4080    2.3570    0.0000 H   0  0
    7.8070    3.0480    0.0000 H   0  0
    6.9840    4.5230    0.0000 H   0  0
    6.5860    3.8320    0.0000 H   0  0
    8.0620    5.0600    0.0000 H   0  0
  1 23  1  0
  2 14  1  0
  2 25  1  0
  3 26  1  0
  3 53  1  0
  4  6  1  0
  4  7  1  0
  4 10  1  0
  5  8  1  0
  5  9  1  0
  5 11  1  0
  6  8  1  0
  6 27  1  0
  6 28  1  0
  7  9  1  0
  7 29  1  0
  7 30  1  0
  8 31  1  0
  8 32  1  0
  9 33  1  0
  9 34  1  0
 10 12  1  0
 10 13  1  0
 10 35  1  0
 11 14  1  0
 11 36  1  0
 11 37  1  0
 12 15  2  0
 12 16  1  0
 13 17  2  0
 13 18  1  0
 14 38  1  0
 14 39  1  0
 15 19  1  0
 15 40  1  0
 16 20  2  0
 16 41  1  0
 17 21  1  0
 17 42  1  0
 18 22  2  0
 18 43  1  0
 19 23  2  0
 19 44  1  0
 20 23  1  0
 20 45  1  0
 21 24  2  0
 21 46  1  0
 22 24  1  0
 22 47  1  0
 24 48  1  0
 25 26  1  0
 25 49  1  0
 25 50  1  0
 26 51  1  0
 26 52  1  0
M  END
> <Name>
3658

> <PUBCHEM_COMPOUND_CID>
3658

> <Toxicity>
0

> <Data Set>
TrainingSet

$$$$
3672
  SciTegic12242523262D

 33 33  0  0  1  0            999 V2000
    4.5980    3.3450    0.0000 O   0  0
    5.4640    1.8450    0.0000 O   0  0
    2.8660   -2.6550    0.0000 C   0  0
    3.7320   -2.1550    0.0000 C   0  0
    3.7320   -1.1550    0.0000 C   0  0
    3.7320    0.8450    0.0000 C   0  0
    3.7320    1.8450    0.0000 C   0  0
    2.8660   -3.6550    0.0000 C   0  0
    2.0000   -2.1550    0.0000 C   0  0
    4.5980   -0.6550    0.0000 C   0  0
    2.8660   -0.6550    0.0000 C   0  0
    4.5980    0.3450    0.0000 C   0  0
    2.8660    0.3450    0.0000 C   0  0
    2.8660    2.3450    0.0000 C   0  0
    4.5980    2.3450    0.0000 C   0  0
    2.8660   -2.0350    0.0000 H   0  0
    3.9440   -2.7380    0.0000 H   0  0
    4.3430   -2.0470    0.0000 H   0  0
    3.7320    2.4650    0.0000 H   0  0
    2.2460   -3.6550    0.0000 H   0  0
    2.8660   -4.2750    0.0000 H   0  0
    3.4860   -3.6550    0.0000 H   0  0
    2.3100   -1.6180    0.0000 H   0  0
    1.4630   -1.8450    0.0000 H   0  0
    1.6900   -2.6920    0.0000 H   0  0
    5.1350   -0.9650    0.0000 H   0  0
    2.3290   -0.9650    0.0000 H   0  0
    5.1350    0.6550    0.0000 H   0  0
    2.3290    0.6550    0.0000 H   0  0
    3.1760    2.8820    0.0000 H   0  0
    2.3290    2.6550    0.0000 H   0  0
    2.5560    1.8080    0.0000 H   0  0
    5.1350    3.6550    0.0000 H   0  0
  1 15  1  0
  1 33  1  0
  2 15  2  0
  3  4  1  0
  3  8  1  0
  3  9  1  0
  3 16  1  0
  4  5  1  0
  4 17  1  0
  4 18  1  0
  5 10  2  0
  5 11  1  0
  6  7  1  0
  6 12  2  0
  6 13  1  0
  7 14  1  0
  7 15  1  0
  7 19  1  0
  8 20  1  0
  8 21  1  0
  8 22  1  0
  9 23  1  0
  9 24  1  0
  9 25  1  0
 10 12  1  0
 10 26  1  0
 11 13  2  0
 11 27  1  0
 12 28  1  0
 13 29  1  0
 14 30  1  0
 14 31  1  0
 14 32  1  0
M  END
> <Name>
3672

> <PUBCHEM_COMPOUND_CID>
3672

> <Toxicity>
0

> <Data Set>
TrainingSet

$$$$
3690
  SciTegic12242523262D

 29 29  0  0  1  0            999 V2000
    2.0000    0.7320    0.0000 Cl  0  0
    5.4640   -2.7320    0.0000 Cl  0  0
    5.4640    0.7320    0.0000 P   0  0
    6.3300    1.2320    0.0000 O   0  0
    5.9640   -0.1340    0.0000 O   0  0
    4.5980    1.2320    0.0000 N   0  0
    4.9640   -0.1340    0.0000 N   0  0
    4.5980    2.2320    0.0000 C   0  0
    5.4640    2.7320    0.0000 C   0  0
    6.3300    2.2320    0.0000 C   0  0
    3.7320    0.7320    0.0000 C   0  0
    5.4640   -1.0000    0.0000 C   0  0
    2.8660    1.2320    0.0000 C   0  0
    4.9640   -1.8660    0.0000 C   0  0
    4.3860    2.8150    0.0000 H   0  0
    3.9880    2.1240    0.0000 H   0  0
    5.8630    3.2070    0.0000 H   0  0
    5.0660    3.2070    0.0000 H   0  0
    6.9410    2.1240    0.0000 H   0  0
    6.5420    2.8150    0.0000 H   0  0
    3.3340    0.2570    0.0000 H   0  0
    4.1310    0.2570    0.0000 H   0  0
    4.3440   -0.1340    0.0000 H   0  0
    5.9390   -1.3980    0.0000 H   0  0
    5.9390   -0.6020    0.0000 H   0  0
    3.2650    1.7070    0.0000 H   0  0
    2.4680    1.7070    0.0000 H   0  0
    4.4890   -1.4680    0.0000 H   0  0
    4.4890   -2.2650    0.0000 H   0  0
  1 13  1  0
  2 14  1  0
  3  4  1  0
  3  5  2  0
  3  6  1  0
  3  7  1  0
  4 10  1  0
  6  8  1  0
  6 11  1  0
  7 12  1  0
  7 23  1  0
  8  9  1  0
  8 15  1  0
  8 16  1  0
  9 10  1  0
  9 17  1  0
  9 18  1  0
 10 19  1  0
 10 20  1  0
 11 13  1  0
 11 21  1  0
 11 22  1  0
 12 14  1  0
 12 24  1  0
 12 25  1  0
 13 26  1  0
 13 27  1  0
 14 28  1  0
 14 29  1  0
M  END
> <Name>
3690

> <PUBCHEM_COMPOUND_CID>
3690

> <Toxicity>
1

> <Data Set>
TrainingSet

$$$$
5291
  SciTegic12242523262D

 68 72  0  0  0  0            999 V2000
    7.1960   -0.5000    0.0000 O   0  0
    2.8660   -3.0000    0.0000 N   0  0
    2.8660   -5.0000    0.0000 N   0  0
    6.3300    1.0000    0.0000 N   0  0
    8.0620    4.0000    0.0000 N   0  0
    6.3300    4.0000    0.0000 N   0  0
    7.1960    5.5000    0.0000 N   0  0
    2.8660    4.0000    0.0000 N   0  0
    2.0000   -3.5000    0.0000 C   0  0
    3.7320   -3.5000    0.0000 C   0  0
    2.0000   -4.5000    0.0000 C   0  0
    3.7320   -4.5000    0.0000 C   0  0
    2.8660   -2.0000    0.0000 C   0  0
    2.8660   -6.0000    0.0000 C   0  0
    3.7320   -1.5000    0.0000 C   0  0
    4.5980   -2.0000    0.0000 C   0  0
    3.7320   -0.5000    0.0000 C   0  0
    5.4640   -1.5000    0.0000 C   0  0
    4.5980    0.0000    0.0000 C   0  0
    5.4640   -0.5000    0.0000 C   0  0
    6.3300    0.0000    0.0000 C   0  0
    7.1960    1.5000    0.0000 C   0  0
    8.0620    3.0000    0.0000 C   0  0
    7.1960    2.5000    0.0000 C   0  0
    8.9280    2.5000    0.0000 C   0  0
    8.0620    1.0000    0.0000 C   0  0
    8.9280    1.5000    0.0000 C   0  0
    9.7940    3.0000    0.0000 C   0  0
    7.1960    4.5000    0.0000 C   0  0
    5.4640    4.5000    0.0000 C   0  0
    4.5980    4.0000    0.0000 C   0  0
    5.4640    5.5000    0.0000 C   0  0
    6.3300    6.0000    0.0000 C   0  0
    4.5980    3.0000    0.0000 C   0  0
    3.7320    4.5000    0.0000 C   0  0
    3.7320    2.5000    0.0000 C   0  0
    2.8660    3.0000    0.0000 C   0  0
    1.7880   -2.9170    0.0000 H   0  0
    1.3890   -3.6080    0.0000 H   0  0
    4.3430   -3.6080    0.0000 H   0  0
    3.9440   -2.9170    0.0000 H   0  0
    1.3890   -4.3920    0.0000 H   0  0
    1.7880   -5.0830    0.0000 H   0  0
    3.9440   -5.0830    0.0000 H   0  0
    4.3430   -4.3920    0.0000 H   0  0
    2.6540   -1.4170    0.0000 H   0  0
    2.2550   -2.1080    0.0000 H   0  0
    2.2460   -6.0000    0.0000 H   0  0
    2.8660   -6.6200    0.0000 H   0  0
    3.4860   -6.0000    0.0000 H   0  0
    4.5980   -2.6200    0.0000 H   0  0
    3.1950   -0.1900    0.0000 H   0  0
    6.0010   -1.8100    0.0000 H   0  0
    4.5980    0.6200    0.0000 H   0  0
    5.7930    1.3100    0.0000 H   0  0
    6.6590    2.8100    0.0000 H   0  0
    8.0620    0.3800    0.0000 H   0  0
    9.4650    1.1900    0.0000 H   0  0
    8.5990    4.3100    0.0000 H   0  0
   10.1040    2.4630    0.0000 H   0  0
   10.3310    3.3100    0.0000 H   0  0
    9.4840    3.5370    0.0000 H   0  0
    4.9270    5.8100    0.0000 H   0  0
    6.3300    6.6200    0.0000 H   0  0
    5.1350    2.6900    0.0000 H   0  0
    3.7320    5.1200    0.0000 H   0  0
    3.7320    1.8800    0.0000 H   0  0
    2.3290    2.6900    0.0000 H   0  0
  1 21  2  0
  2  9  1  0
  2 10  1  0
  2 13  1  0
  3 11  1  0
  3 12  1  0
  3 14  1  0
  4 21  1  0
  4 22  1  0
  4 55  1  0
  5 23  1  0
  5 29  1  0
  5 59  1  0
  6 29  2  0
  6 30  1  0
  7 29  1  0
  7 33  2  0
  8 35  2  0
  8 37  1  0
  9 11  1  0
  9 38  1  0
  9 39  1  0
 10 12  1  0
 10 40  1  0
 10 41  1  0
 11 42  1  0
 11 43  1  0
 12 44  1  0
 12 45  1  0
 13 15  1  0
 13 46  1  0
 13 47  1  0
 14 48  1  0
 14 49  1  0
 14 50  1  0
 15 16  2  0
 15 17  1  0
 16 18  1  0
 16 51  1  0
 17 19  2  0
 17 52  1  0
 18 20  2  0
 18 53  1  0
 19 20  1  0
 19 54  1  0
 20 21  1  0
 22 24  2  0
 22 26  1  0
 23 24  1  0
 23 25  2  0
 24 56  1  0
 25 27  1  0
 25 28  1  0
 26 27  2  0
 26 57  1  0
 27 58  1  0
 28 60  1  0
 28 61  1  0
 28 62  1  0
 30 31  1  0
 30 32  2  0
 31 34  2  0
 31 35  1  0
 32 33  1  0
 32 63  1  0
 33 64  1  0
 34 36  1  0
 34 65  1  0
 35 66  1  0
 36 37  2  0
 36 67  1  0
 37 68  1  0
M  END
> <Name>
5291

> <PUBCHEM_COMPOUND_CID>
5291

> <Toxicity>
1

> <Data Set>
TrainingSet

$$$$
3696
  SciTegic12242523262D

 45 47  0  0  0  0            999 V2000
    4.8830    0.9050    0.0000 N   0  0
    3.1510   -2.0950    0.0000 N   0  0
    4.8830   -0.0950    0.0000 C   0  0
    3.9820    1.3390    0.0000 C   0  0
    5.7840    1.3390    0.0000 C   0  0
    4.3830    3.0950    0.0000 C   0  0
    5.3830    3.0950    0.0000 C   0  0
    3.7600    2.3140    0.0000 C   0  0
    6.0060    2.3140    0.0000 C   0  0
    4.0170   -0.5950    0.0000 C   0  0
    4.0170   -1.5950    0.0000 C   0  0
    3.2300    0.6180    0.0000 C   0  0
    6.5360    0.6180    0.0000 C   0  0
    2.7690    2.6360    0.0000 C   0  0
    6.9970    2.6360    0.0000 C   0  0
    2.2320    0.9180    0.0000 C   0  0
    7.5340    0.9180    0.0000 C   0  0
    2.0000    1.9330    0.0000 C   0  0
    7.7660    1.9330    0.0000 C   0  0
    3.1510   -3.0950    0.0000 C   0  0
    2.2850   -1.5950    0.0000 C   0  0
    5.0950   -0.6780    0.0000 H   0  0
    5.4940    0.0120    0.0000 H   0  0
    4.5210    3.7000    0.0000 H   0  0
    3.8240    3.3640    0.0000 H   0  0
    5.9420    3.3640    0.0000 H   0  0
    5.2450    3.7000    0.0000 H   0  0
    3.8050   -0.0130    0.0000 H   0  0
    3.4060   -0.7030    0.0000 H   0  0
    4.2290   -2.1780    0.0000 H   0  0
    4.6280   -1.4880    0.0000 H   0  0
    3.3740    0.0160    0.0000 H   0  0
    6.3920    0.0160    0.0000 H   0  0
    2.6380    3.2420    0.0000 H   0  0
    7.1280    3.2420    0.0000 H   0  0
    1.7790    0.4940    0.0000 H   0  0
    7.9870    0.4940    0.0000 H   0  0
    1.4080    2.1180    0.0000 H   0  0
    8.3580    2.1180    0.0000 H   0  0
    2.5310   -3.0950    0.0000 H   0  0
    3.1510   -3.7150    0.0000 H   0  0
    3.7710   -3.0950    0.0000 H   0  0
    2.5950   -1.0580    0.0000 H   0  0
    1.7480   -1.2850    0.0000 H   0  0
    1.9750   -2.1320    0.0000 H   0  0
  1  3  1  0
  1  4  1  0
  1  5  1  0
  2 11  1  0
  2 20  1  0
  2 21  1  0
  3 10  1  0
  3 22  1  0
  3 23  1  0
  4  8  2  0
  4 12  1  0
  5  9  2  0
  5 13  1  0
  6  7  1  0
  6  8  1  0
  6 24  1  0
  6 25  1  0
  7  9  1  0
  7 26  1  0
  7 27  1  0
  8 14  1  0
  9 15  1  0
 10 11  1  0
 10 28  1  0
 10 29  1  0
 11 30  1  0
 11 31  1  0
 12 16  2  0
 12 32  1  0
 13 17  2  0
 13 33  1  0
 14 18  2  0
 14 34  1  0
 15 19  2  0
 15 35  1  0
 16 18  1  0
 16 36  1  0
 17 19  1  0
 17 37  1  0
 18 38  1  0
 19 39  1  0
 20 40  1  0
 20 41  1  0
 20 42  1  0
 21 43  1  0
 21 44  1  0
 21 45  1  0
M  END
> <Name>
3696

> <PUBCHEM_COMPOUND_CID>
3696

> <Toxicity>
0

> <Data Set>
TrainingSet

$$$$
3730
  SciTegic12242523262D

 60 60  0  0  1  0            999 V2000
    4.2690    1.0000    0.0000 I   0  0
    7.7330    1.0000    0.0000 I   0  0
    6.0010   -2.0000    0.0000 I   0  0
    6.0010    4.0000    0.0000 O   0  0
    7.7330    5.0000    0.0000 O   0  0
    4.2690    2.0000    0.0000 O   0  0
    7.7330   -4.0000    0.0000 O   0  0
    4.2690   -4.0000    0.0000 O   0  0
    8.5990   -0.5000    0.0000 O   0  0
    3.4030   -0.5000    0.0000 O   0  0
    9.4650   -5.0000    0.0000 O   0  0
    2.5370   -5.0000    0.0000 O   0  0
    6.0010    2.0000    0.0000 N   0  0
    7.7330   -2.0000    0.0000 N   0  0
    4.2690   -2.0000    0.0000 N   0  0
    6.8670    2.5000    0.0000 C   0  0
    6.0010    1.0000    0.0000 C   0  0
    6.8670    3.5000    0.0000 C   0  0
    5.1350    0.5000    0.0000 C   0  0
    6.8670    0.5000    0.0000 C   0  0
    5.1350   -0.5000    0.0000 C   0  0
    6.8670   -0.5000    0.0000 C   0  0
    6.0010   -1.0000    0.0000 C   0  0
    7.7330    4.0000    0.0000 C   0  0
    5.1350    2.5000    0.0000 C   0  0
    7.7330   -1.0000    0.0000 C   0  0
    4.2690   -1.0000    0.0000 C   0  0
    8.5990   -2.5000    0.0000 C   0  0
    3.4030   -2.5000    0.0000 C   0  0
    8.5990   -3.5000    0.0000 C   0  0
    3.4030   -3.5000    0.0000 C   0  0
    5.1350    3.5000    0.0000 C   0  0
    9.4650   -4.0000    0.0000 C   0  0
    2.5370   -4.0000    0.0000 C   0  0
    7.0790    1.9170    0.0000 H   0  0
    7.4780    2.6080    0.0000 H   0  0
    6.3300    3.1900    0.0000 H   0  0
    7.9450    3.4170    0.0000 H   0  0
    8.3440    4.1080    0.0000 H   0  0
    9.2100   -2.6080    0.0000 H   0  0
    8.8110   -1.9170    0.0000 H   0  0
    3.1910   -1.9170    0.0000 H   0  0
    2.7920   -2.6080    0.0000 H   0  0
    8.5990   -4.1200    0.0000 H   0  0
    3.4030   -4.1200    0.0000 H   0  0
    7.1960   -2.3100    0.0000 H   0  0
    4.8060   -2.3100    0.0000 H   0  0
    5.7550    3.5000    0.0000 H   0  0
    5.1350    4.1200    0.0000 H   0  0
    4.5150    3.5000    0.0000 H   0  0
    6.0010    4.6200    0.0000 H   0  0
   10.0760   -4.1080    0.0000 H   0  0
    9.6770   -3.4170    0.0000 H   0  0
    2.3250   -3.4170    0.0000 H   0  0
    1.9260   -4.1080    0.0000 H   0  0
    8.2700    5.3100    0.0000 H   0  0
    7.7330   -4.6200    0.0000 H   0  0
    4.2690   -4.6200    0.0000 H   0  0
   10.0020   -5.3100    0.0000 H   0  0
    2.0000   -5.3100    0.0000 H   0  0
  1 19  1  0
  2 20  1  0
  3 23  1  0
  4 18  1  0
  4 51  1  0
  5 24  1  0
  5 56  1  0
  6 25  2  0
  7 30  1  0
  7 57  1  0
  8 31  1  0
  8 58  1  0
  9 26  2  0
 10 27  2  0
 11 33  1  0
 11 59  1  0
 12 34  1  0
 12 60  1  0
 13 16  1  0
 13 17  1  0
 13 25  1  0
 14 26  1  0
 14 28  1  0
 14 46  1  0
 15 27  1  0
 15 29  1  0
 15 47  1  0
 16 18  1  0
 16 35  1  0
 16 36  1  0
 17 19  2  0
 17 20  1  0
 18 24  1  0
 18 37  1  0
 19 21  1  0
 20 22  2  0
 21 23  2  0
 21 27  1  0
 22 23  1  0
 22 26  1  0
 24 38  1  0
 24 39  1  0
 25 32  1  0
 28 30  1  0
 28 40  1  0
 28 41  1  0
 29 31  1  0
 29 42  1  0
 29 43  1  0
 30 33  1  0
 30 44  1  0
 31 34  1  0
 31 45  1  0
 32 48  1  0
 32 49  1  0
 32 50  1  0
 33 52  1  0
 33 53  1  0
 34 54  1  0
 34 55  1  0
M  END
> <Name>
3730

> <PUBCHEM_COMPOUND_CID>
3730

> <Toxicity>
0

> <Data Set>
TrainingSet

$$$$
3735
  SciTegic12242523262D

 29 29  0  0  1  0            999 V2000
    2.5370   -0.3100    0.0000 I   0  0
    6.0010   -0.3100    0.0000 I   0  0
    4.2690   -3.3100    0.0000 I   0  0
    6.0010    2.6900    0.0000 O   0  0
    4.2690    2.6900    0.0000 O   0  0
    2.5370   -2.3100    0.0000 N   0  0
    5.1350    1.1900    0.0000 C   0  0
    4.2690    0.6900    0.0000 C   0  0
    6.0010    0.6900    0.0000 C   0  0
    4.2690   -0.3100    0.0000 C   0  0
    5.1350    2.1900    0.0000 C   0  0
    6.8670    1.1900    0.0000 C   0  0
    3.4030   -0.8100    0.0000 C   0  0
    5.1350   -0.8100    0.0000 C   0  0
    3.4030   -1.8100    0.0000 C   0  0
    5.1350   -1.8100    0.0000 C   0  0
    4.2690   -2.3100    0.0000 C   0  0
    5.8710    1.6150    0.0000 H   0  0
    4.0570    1.2730    0.0000 H   0  0
    3.6580    0.5820    0.0000 H   0  0
    5.6020    0.2150    0.0000 H   0  0
    6.4000    0.2150    0.0000 H   0  0
    7.1770    0.6530    0.0000 H   0  0
    7.4040    1.5000    0.0000 H   0  0
    6.5570    1.7270    0.0000 H   0  0
    5.6720   -2.1200    0.0000 H   0  0
    6.0010    3.3100    0.0000 H   0  0
    2.5370   -2.9300    0.0000 H   0  0
    2.0000   -2.0000    0.0000 H   0  0
  1 13  1  0
  2 14  1  0
  3 17  1  0
  4 11  1  0
  4 27  1  0
  5 11  2  0
  6 15  1  0
  6 28  1  0
  6 29  1  0
  7  8  1  0
  7  9  1  0
  7 11  1  0
  7 18  1  0
  8 10  1  0
  8 19  1  0
  8 20  1  0
  9 12  1  0
  9 21  1  0
  9 22  1  0
 10 13  2  0
 10 14  1  0
 12 23  1  0
 12 24  1  0
 12 25  1  0
 13 15  1  0
 14 16  2  0
 15 17  2  0
 16 17  1  0
 16 26  1  0
M  END
> <Name>
3735

> <PUBCHEM_COMPOUND_CID>
3735

> <Toxicity>
0

> <Data Set>
TrainingSet

$$$$
657308
  SciTegic12242523262D

 54 56  0  0  1  0            999 V2000
    5.2420    4.8920    0.0000 O   0  0
    4.6490    3.2640    0.0000 O   0  0
    8.0610    3.8660    0.0000 O   0  0
    2.7300    7.4890    0.0000 N   0  3
    2.2520    5.5400    0.0000 C   0  0  1  0  0  0
    1.9930    6.5060    0.0000 C   0  0  2  0  0  0
    0.8530    5.0320    0.0000 C   0  0
    0.5940    5.9970    0.0000 C   0  0
    3.4730    4.6750    0.0000 C   0  0
    4.0260    6.1950    0.0000 C   0  0
    2.6250    8.4830    0.0000 C   0  0
    4.3020    5.2340    0.0000 C   0  0
    3.6430    7.8960    0.0000 C   0  0
    1.7120    8.8900    0.0000 C   0  0
    3.4340    9.0710    0.0000 C   0  0
    5.4150    3.9070    0.0000 C   0  0
    6.3550    3.5650    0.0000 C   0  0
    7.1210    4.2080    0.0000 C   0  0
    6.5280    2.5800    0.0000 C   0  0
    7.4680    2.2380    0.0000 C   0  0
    5.7620    1.9370    0.0000 C   0  0
    7.6420    1.2530    0.0000 C   0  0
    5.9360    0.9530    0.0000 C   0  0
    6.8760    0.6110    0.0000 C   0  0
    2.4720    4.7190    0.0000 H   0  0
    1.7730    7.3270    0.0000 H   0  0
    1.0480    4.4430    0.0000 H   0  0
    0.2590    4.8540    0.0000 H   0  0
    0.0000    5.8200    0.0000 H   0  0
    0.3990    6.5860    0.0000 H   0  0
    3.8790    4.2060    0.0000 H   0  0
    3.0560    4.2160    0.0000 H   0  0
    4.0310    6.8150    0.0000 H   0  0
    4.6400    6.2790    0.0000 H   0  0
    2.5600    9.1000    0.0000 H   0  0
    4.7550    5.6570    0.0000 H   0  0
    3.3910    8.4620    0.0000 H   0  0
    4.2100    8.1480    0.0000 H   0  0
    3.8950    7.3290    0.0000 H   0  0
    1.4590    8.3240    0.0000 H   0  0
    1.1450    9.1420    0.0000 H   0  0
    1.9640    9.4560    0.0000 H   0  0
    3.0700    9.5730    0.0000 H   0  0
    3.9360    9.4360    0.0000 H   0  0
    3.7980    8.5700    0.0000 H   0  0
    6.2470    4.1760    0.0000 H   0  0
    6.6460    4.6060    0.0000 H   0  0
    7.4310    4.7450    0.0000 H   0  0
    7.9430    2.6370    0.0000 H   0  0
    5.1800    2.1500    0.0000 H   0  0
    8.5360    4.2640    0.0000 H   0  0
    8.2240    1.0410    0.0000 H   0  0
    5.4610    0.5540    0.0000 H   0  0
    6.9830    0.0000    0.0000 H   0  0
  1 12  1  0
  1 16  1  0
  2 16  2  0
  3 18  1  0
  3 51  1  0
  4  5  1  0
  4  6  1  0
  4 11  1  0
  4 13  1  0
  5  7  1  0
  5  9  1  0
  5 25  1  1
  6  8  1  0
  6 10  1  0
  6 26  1  6
  7  8  1  0
  7 27  1  0
  7 28  1  0
  8 29  1  0
  8 30  1  0
  9 12  1  0
  9 31  1  0
  9 32  1  0
 10 12  1  0
 10 33  1  0
 10 34  1  0
 11 14  1  0
 11 15  1  0
 11 35  1  0
 12 36  1  0
 13 37  1  0
 13 38  1  0
 13 39  1  0
 14 40  1  0
 14 41  1  0
 14 42  1  0
 15 43  1  0
 15 44  1  0
 15 45  1  0
 16 17  1  0
 17 18  1  0
 17 19  1  0
 17 46  1  0
 18 47  1  0
 18 48  1  0
 19 20  2  0
 19 21  1  0
 20 22  1  0
 20 49  1  0
 21 23  2  0
 21 50  1  0
 22 24  2  0
 22 52  1  0
 23 24  1  0
 23 53  1  0
 24 54  1  0
M  CHG  1   4   1
M  END
> <Name>
657308

> <PUBCHEM_COMPOUND_CID>
657308

> <Toxicity>
0

> <Data Set>
TrainingSet

$$$$
50108
  SciTegic12242523262D

 68 70  0  0  0  0            999 V2000
    4.3480   -1.7780    0.0000 S   0  0
    7.9310   -3.4520    0.0000 S   0  0
    4.1740   -2.7630    0.0000 O   0  0
    3.3630   -1.6050    0.0000 O   0  0
    4.5220   -0.7940    0.0000 O   0  5
    8.7970   -3.9520    0.0000 O   0  0
    7.4310   -4.3180    0.0000 O   0  0
    8.4310   -2.5860    0.0000 O   0  5
    9.6630    1.5480    0.0000 N   0  0
    3.6280    2.6120    0.0000 N   0  3
    6.1990   -0.4520    0.0000 C   0  0
    6.1990   -1.4520    0.0000 C   0  0
    7.0650    0.0480    0.0000 C   0  0
    5.5560    0.3140    0.0000 C   0  0
    8.7970    1.0480    0.0000 C   0  0
    4.2700    1.8460    0.0000 C   0  0
    5.3330   -1.9520    0.0000 C   0  0
    7.0650    1.0480    0.0000 C   0  0
    7.9310   -0.4520    0.0000 C   0  0
    4.5710    0.1400    0.0000 C   0  0
    5.8980    1.2540    0.0000 C   0  0
    7.0650   -1.9520    0.0000 C   0  0
    7.9310    1.5480    0.0000 C   0  0
    8.7970    0.0480    0.0000 C   0  0
    3.9280    0.9060    0.0000 C   0  0
    5.2550    2.0200    0.0000 C   0  0
    9.6630    2.5480    0.0000 C   0  0
   10.5290    1.0480    0.0000 C   0  0
    3.9700    3.5520    0.0000 C   0  0
    2.6430    2.4390    0.0000 C   0  0
    7.0650   -2.9520    0.0000 C   0  0
    5.3330   -2.9520    0.0000 C   0  0
    6.1990   -3.4520    0.0000 C   0  0
   10.5290    3.0480    0.0000 C   0  0
   11.3950    1.5480    0.0000 C   0  0
    3.3270    4.3180    0.0000 C   0  0
    2.0000    3.2050    0.0000 C   0  0
    6.5280    1.3580    0.0000 H   0  0
    7.9310   -1.0720    0.0000 H   0  0
    4.3590   -0.4420    0.0000 H   0  0
    6.5090    1.3620    0.0000 H   0  0
    7.6020   -1.6420    0.0000 H   0  0
    7.9310    2.1680    0.0000 H   0  0
    9.3340   -0.2620    0.0000 H   0  0
    3.3180    0.7990    0.0000 H   0  0
    5.4670    2.6020    0.0000 H   0  0
    9.4510    3.1310    0.0000 H   0  0
    9.0520    2.4400    0.0000 H   0  0
   10.1300    0.5730    0.0000 H   0  0
   10.9270    0.5730    0.0000 H   0  0
    4.5070    3.2420    0.0000 H   0  0
    4.3680    4.0270    0.0000 H   0  0
    2.1060    2.1290    0.0000 H   0  0
    2.8550    1.8560    0.0000 H   0  0
    4.7960   -3.2620    0.0000 H   0  0
    6.1990   -4.0720    0.0000 H   0  0
   10.8390    2.5110    0.0000 H   0  0
   11.0660    3.3580    0.0000 H   0  0
   10.2190    3.5850    0.0000 H   0  0
   11.7050    1.0110    0.0000 H   0  0
   11.9320    1.8580    0.0000 H   0  0
   11.0850    2.0850    0.0000 H   0  0
    3.8020    4.7160    0.0000 H   0  0
    2.9280    4.7930    0.0000 H   0  0
    2.8520    3.9190    0.0000 H   0  0
    2.4750    3.6030    0.0000 H   0  0
    1.6020    3.6800    0.0000 H   0  0
    1.5250    2.8060    0.0000 H   0  0
  1  3  2  0
  1  4  2  0
  1  5  1  0
  1 17  1  0
  2  6  2  0
  2  7  2  0
  2  8  1  0
  2 31  1  0
  9 15  1  0
  9 27  1  0
  9 28  1  0
 10 16  2  0
 10 29  1  0
 10 30  1  0
 11 12  1  0
 11 13  1  0
 11 14  2  0
 12 17  1  0
 12 22  2  0
 13 18  2  0
 13 19  1  0
 14 20  1  0
 14 21  1  0
 15 23  2  0
 15 24  1  0
 16 25  1  0
 16 26  1  0
 17 32  2  0
 18 23  1  0
 18 38  1  0
 19 24  2  0
 19 39  1  0
 20 25  2  0
 20 40  1  0
 21 26  2  0
 21 41  1  0
 22 31  1  0
 22 42  1  0
 23 43  1  0
 24 44  1  0
 25 45  1  0
 26 46  1  0
 27 34  1  0
 27 47  1  0
 27 48  1  0
 28 35  1  0
 28 49  1  0
 28 50  1  0
 29 36  1  0
 29 51  1  0
 29 52  1  0
 30 37  1  0
 30 53  1  0
 30 54  1  0
 31 33  2  0
 32 33  1  0
 32 55  1  0
 33 56  1  0
 34 57  1  0
 34 58  1  0
 34 59  1  0
 35 60  1  0
 35 61  1  0
 35 62  1  0
 36 63  1  0
 36 64  1  0
 36 65  1  0
 37 66  1  0
 37 67  1  0
 37 68  1  0
M  CHG  3   5  -1   8  -1  10   1
M  END
> <Name>
50108

> <PUBCHEM_COMPOUND_CID>
50108

> <Toxicity>
1

> <Data Set>
TrainingSet

$$$$
5282379
  SciTegic12242523262D

 50 50  0  0  0  0            999 V2000
    9.0620    3.6900    0.0000 O   0  0
    8.1960    2.1900    0.0000 O   0  0
    3.0000   -2.8100    0.0000 C   0  0
    3.0000   -3.8100    0.0000 C   0  0
    3.8660   -4.3100    0.0000 C   0  0
    3.8660   -2.3100    0.0000 C   0  0
    4.7320   -3.8100    0.0000 C   0  0
    4.7320   -2.8100    0.0000 C   0  0
    2.0000   -2.8100    0.0000 C   0  0
    2.5000   -1.9440    0.0000 C   0  0
    3.8660   -1.3100    0.0000 C   0  0
    5.5980   -2.3100    0.0000 C   0  0
    4.7320   -0.8100    0.0000 C   0  0
    4.7320    0.1900    0.0000 C   0  0
    3.8660    0.6900    0.0000 C   0  0
    5.5980    0.6900    0.0000 C   0  0
    5.5980    1.6900    0.0000 C   0  0
    6.4640    2.1900    0.0000 C   0  0
    6.4640    3.1900    0.0000 C   0  0
    5.5980    3.6900    0.0000 C   0  0
    7.3300    3.6900    0.0000 C   0  0
    8.1960    3.1900    0.0000 C   0  0
    2.3890   -3.7020    0.0000 H   0  0
    2.7880   -4.3930    0.0000 H   0  0
    3.4680   -4.7850    0.0000 H   0  0
    4.2650   -4.7850    0.0000 H   0  0
    4.9440   -4.3930    0.0000 H   0  0
    5.3430   -3.7020    0.0000 H   0  0
    2.0000   -2.1900    0.0000 H   0  0
    1.3800   -2.8100    0.0000 H   0  0
    2.0000   -3.4300    0.0000 H   0  0
    3.0370   -1.6340    0.0000 H   0  0
    2.1900   -1.4070    0.0000 H   0  0
    1.9630   -2.2540    0.0000 H   0  0
    3.3290   -1.0000    0.0000 H   0  0
    5.9080   -2.8470    0.0000 H   0  0
    6.1350   -2.0000    0.0000 H   0  0
    5.2880   -1.7730    0.0000 H   0  0
    5.2690   -1.1200    0.0000 H   0  0
    4.1760    1.2270    0.0000 H   0  0
    3.3290    1.0000    0.0000 H   0  0
    3.5560    0.1530    0.0000 H   0  0
    6.1350    0.3800    0.0000 H   0  0
    5.0610    2.0000    0.0000 H   0  0
    7.0010    1.8800    0.0000 H   0  0
    5.9080    4.2270    0.0000 H   0  0
    5.0610    4.0000    0.0000 H   0  0
    5.2880    3.1530    0.0000 H   0  0
    7.3300    4.3100    0.0000 H   0  0
    9.5990    3.3800    0.0000 H   0  0
  1 22  1  0
  1 50  1  0
  2 22  2  0
  3  4  1  0
  3  6  1  0
  3  9  1  0
  3 10  1  0
  4  5  1  0
  4 23  1  0
  4 24  1  0
  5  7  1  0
  5 25  1  0
  5 26  1  0
  6  8  2  0
  6 11  1  0
  7  8  1  0
  7 27  1  0
  7 28  1  0
  8 12  1  0
  9 29  1  0
  9 30  1  0
  9 31  1  0
 10 32  1  0
 10 33  1  0
 10 34  1  0
 11 13  2  0
 11 35  1  0
 12 36  1  0
 12 37  1  0
 12 38  1  0
 13 14  1  0
 13 39  1  0
 14 15  1  0
 14 16  2  0
 15 40  1  0
 15 41  1  0
 15 42  1  0
 16 17  1  0
 16 43  1  0
 17 18  2  0
 17 44  1  0
 18 19  1  0
 18 45  1  0
 19 20  1  0
 19 21  2  0
 20 46  1  0
 20 47  1  0
 20 48  1  0
 21 22  1  0
 21 49  1  0
M  END
> <Name>
5282379

> <PUBCHEM_COMPOUND_CID>
5282379

> <Toxicity>
1

> <Data Set>
TrainingSet

$$$$
3823
  SciTegic12242523262D

 64 68  0  0  1  0            999 V2000
    3.4400   -1.6900    0.0000 Cl  0  0
    5.1720   -4.6900    0.0000 Cl  0  0
    6.1720   -0.6900    0.0000 O   0  0
    4.8630    0.2610    0.0000 O   0  0
    7.6400    1.5480    0.0000 O   0  0
   15.0410    3.0420    0.0000 O   0  0
   11.4450    2.7850    0.0000 N   0  0
   13.3470    3.4030    0.0000 N   0  0
    3.4780   -0.3300    0.0000 N   0  0
    2.0000    0.3280    0.0000 N   0  0
    5.1720   -0.6900    0.0000 C   0  0
    6.4810    0.2610    0.0000 C   0  0
    5.6720    0.8490    0.0000 C   0  0
    4.2210   -0.9990    0.0000 C   0  0
    5.1720   -1.6900    0.0000 C   0  0
    7.4320    0.5700    0.0000 C   0  0
   12.1880    2.1150    0.0000 C   0  0
   11.6520    3.7630    0.0000 C   0  0
   13.1390    2.4240    0.0000 C   0  0
   12.6040    4.0720    0.0000 C   0  0
   10.4940    2.4760    0.0000 C   0  0
    4.3060   -2.1900    0.0000 C   0  0
    6.0380   -2.1900    0.0000 C   0  0
    8.5910    1.8580    0.0000 C   0  0
   14.2980    3.7120    0.0000 C   0  0
    9.7500    3.1450    0.0000 C   0  0
   10.2860    1.4970    0.0000 C   0  0
    3.5830    0.6650    0.0000 C   0  0
    2.5000   -0.5380    0.0000 C   0  0
    8.7990    2.8360    0.0000 C   0  0
    9.3340    1.1880    0.0000 C   0  0
    4.3060   -3.1900    0.0000 C   0  0
    6.0380   -3.1900    0.0000 C   0  0
    5.1720   -3.6900    0.0000 C   0  0
    2.6690    1.0720    0.0000 C   0  0
   14.5060    4.6900    0.0000 C   0  0
    7.0820   -0.3400    0.0000 H   0  0
    6.0870    1.3100    0.0000 H   0  0
    5.2580    1.3100    0.0000 H   0  0
    3.7330   -1.3800    0.0000 H   0  0
    4.5120   -1.5460    0.0000 H   0  0
    7.5190   -0.0440    0.0000 H   0  0
    8.0520    0.5490    0.0000 H   0  0
   11.6990    1.7340    0.0000 H   0  0
   12.4790    1.5680    0.0000 H   0  0
   11.5660    4.3770    0.0000 H   0  0
   11.0330    3.7840    0.0000 H   0  0
   13.2250    1.8100    0.0000 H   0  0
   13.7580    2.4030    0.0000 H   0  0
   13.0920    4.4530    0.0000 H   0  0
   12.3120    4.6190    0.0000 H   0  0
    6.5750   -1.8800    0.0000 H   0  0
    9.8790    3.7510    0.0000 H   0  0
   10.7460    1.0820    0.0000 H   0  0
    4.1200    0.9750    0.0000 H   0  0
    2.2480   -1.1040    0.0000 H   0  0
    8.3390    3.2500    0.0000 H   0  0
    9.2060    0.5820    0.0000 H   0  0
    3.7690   -3.5000    0.0000 H   0  0
    6.5750   -3.5000    0.0000 H   0  0
    2.5400    1.6780    0.0000 H   0  0
   15.1120    4.5610    0.0000 H   0  0
   14.6340    5.2960    0.0000 H   0  0
   13.8990    4.8190    0.0000 H   0  0
  1 22  1  0
  2 34  1  0
  3 11  1  0
  3 12  1  0
  4 11  1  0
  4 13  1  0
  5 16  1  0
  5 24  1  0
  6 25  2  0
  7 17  1  0
  7 18  1  0
  7 21  1  0
  8 19  1  0
  8 20  1  0
  8 25  1  0
  9 14  1  0
  9 28  1  0
  9 29  1  0
 10 29  2  0
 10 35  1  0
 11 14  1  0
 11 15  1  0
 12 13  1  0
 12 16  1  0
 12 37  1  0
 13 38  1  0
 13 39  1  0
 14 40  1  0
 14 41  1  0
 15 22  2  0
 15 23  1  0
 16 42  1  0
 16 43  1  0
 17 19  1  0
 17 44  1  0
 17 45  1  0
 18 20  1  0
 18 46  1  0
 18 47  1  0
 19 48  1  0
 19 49  1  0
 20 50  1  0
 20 51  1  0
 21 26  2  0
 21 27  1  0
 22 32  1  0
 23 33  2  0
 23 52  1  0
 24 30  2  0
 24 31  1  0
 25 36  1  0
 26 30  1  0
 26 53  1  0
 27 31  2  0
 27 54  1  0
 28 35  2  0
 28 55  1  0
 29 56  1  0
 30 57  1  0
 31 58  1  0
 32 34  2  0
 32 59  1  0
 33 34  1  0
 33 60  1  0
 35 61  1  0
 36 62  1  0
 36 63  1  0
 36 64  1  0
M  END
> <Name>
3823

> <PUBCHEM_COMPOUND_CID>
3823

> <Toxicity>
0

> <Data Set>
TrainingSet

$$$$
3826
  SciTegic12242523262D

 32 34  0  0  1  0            999 V2000
    8.4300    2.2500    0.0000 O   0  0
    6.7840    2.7880    0.0000 O   0  0
    5.6040   -2.2150    0.0000 O   0  0
    6.1940   -0.2120    0.0000 N   0  0
    7.1410    1.0930    0.0000 C   0  0
    7.7240    0.2880    0.0000 C   0  0
    7.1410   -0.5170    0.0000 C   0  0
    6.1940    0.7880    0.0000 C   0  0
    5.2440   -0.5210    0.0000 C   0  0
    5.2440    1.0970    0.0000 C   0  0
    4.6560    0.2880    0.0000 C   0  0
    7.4510    2.0430    0.0000 C   0  0
    4.9340   -1.4720    0.0000 C   0  0
    3.9560   -1.6800    0.0000 C   0  0
    3.2870   -0.9370    0.0000 C   0  0
    3.6470   -2.6310    0.0000 C   0  0
    2.3090   -1.1450    0.0000 C   0  0
    2.6690   -2.8390    0.0000 C   0  0
    2.0000   -2.0960    0.0000 C   0  0
    7.9800    1.2250    0.0000 H   0  0
    8.1850   -0.1270    0.0000 H   0  0
    8.1850    0.7030    0.0000 H   0  0
    6.8900   -1.0840    0.0000 H   0  0
    7.6780   -0.8260    0.0000 H   0  0
    5.0520    1.6870    0.0000 H   0  0
    4.0360    0.2880    0.0000 H   0  0
    8.6220    2.8390    0.0000 H   0  0
    3.4790   -0.3470    0.0000 H   0  0
    4.0620   -3.0920    0.0000 H   0  0
    1.8940   -0.6840    0.0000 H   0  0
    2.4780   -3.4280    0.0000 H   0  0
    1.3940   -2.2250    0.0000 H   0  0
  1 12  1  0
  1 27  1  0
  2 12  2  0
  3 13  2  0
  4  7  1  0
  4  8  1  0
  4  9  1  0
  5  6  1  0
  5  8  1  0
  5 12  1  0
  5 20  1  0
  6  7  1  0
  6 21  1  0
  6 22  1  0
  7 23  1  0
  7 24  1  0
  8 10  2  0
  9 11  2  0
  9 13  1  0
 10 11  1  0
 10 25  1  0
 11 26  1  0
 13 14  1  0
 14 15  2  0
 14 16  1  0
 15 17  1  0
 15 28  1  0
 16 18  2  0
 16 29  1  0
 17 19  2  0
 17 30  1  0
 18 19  1  0
 18 31  1  0
 19 32  1  0
M  END
> <Name>
3826

> <PUBCHEM_COMPOUND_CID>
3826

> <Toxicity>
0

> <Data Set>
TrainingSet

$$$$
3869
  SciTegic12242523262D

 48 49  0  0  1  0            999 V2000
    6.8670    1.4400    0.0000 O   0  0
    2.5370    2.9400    0.0000 O   0  0
    3.4030    4.4400    0.0000 O   0  0
    6.8670   -0.5600    0.0000 N   0  0
    5.1350    4.4400    0.0000 N   0  0
    6.8670   -1.5600    0.0000 C   0  0
    7.7330   -2.0600    0.0000 C   0  0
    6.0010   -0.0600    0.0000 C   0  0
    7.7330   -3.0600    0.0000 C   0  0
    6.0010    0.9400    0.0000 C   0  0
    6.0010   -2.0600    0.0000 C   0  0
    5.1350    1.4400    0.0000 C   0  0
    8.5990   -3.5600    0.0000 C   0  0
    5.1350    2.4400    0.0000 C   0  0
    4.2690    0.9400    0.0000 C   0  0
    9.4650   -3.0600    0.0000 C   0  0
    8.5990   -4.5600    0.0000 C   0  0
    4.2690    2.9400    0.0000 C   0  0
    3.4030    1.4400    0.0000 C   0  0
    3.4030    2.4400    0.0000 C   0  0
   10.3310   -3.5600    0.0000 C   0  0
    9.4650   -5.0600    0.0000 C   0  0
   10.3310   -4.5600    0.0000 C   0  0
    4.2690    3.9400    0.0000 C   0  0
    6.3300   -1.2500    0.0000 H   0  0
    8.3440   -2.1680    0.0000 H   0  0
    7.9450   -1.4770    0.0000 H   0  0
    7.4040   -0.2500    0.0000 H   0  0
    5.3900    0.0480    0.0000 H   0  0
    5.7890   -0.6430    0.0000 H   0  0
    7.1220   -2.9520    0.0000 H   0  0
    7.5210   -3.6430    0.0000 H   0  0
    6.5380    0.6300    0.0000 H   0  0
    5.6910   -1.5230    0.0000 H   0  0
    5.4640   -2.3700    0.0000 H   0  0
    6.3110   -2.5970    0.0000 H   0  0
    5.6720    2.7500    0.0000 H   0  0
    4.2690    0.3200    0.0000 H   0  0
    9.4650   -2.4400    0.0000 H   0  0
    8.0620   -4.8700    0.0000 H   0  0
    7.4040    1.1300    0.0000 H   0  0
    2.8660    1.1300    0.0000 H   0  0
   10.8680   -3.2500    0.0000 H   0  0
    9.4650   -5.6800    0.0000 H   0  0
   10.8680   -4.8700    0.0000 H   0  0
    2.0000    2.6300    0.0000 H   0  0
    5.1350    5.0600    0.0000 H   0  0
    5.6720    4.1300    0.0000 H   0  0
  1 10  1  0
  1 41  1  0
  2 20  1  0
  2 46  1  0
  3 24  2  0
  4  6  1  0
  4  8  1  0
  4 28  1  0
  5 24  1  0
  5 47  1  0
  5 48  1  0
  6  7  1  0
  6 11  1  0
  6 25  1  0
  7  9  1  0
  7 26  1  0
  7 27  1  0
  8 10  1  0
  8 29  1  0
  8 30  1  0
  9 13  1  0
  9 31  1  0
  9 32  1  0
 10 12  1  0
 10 33  1  0
 11 34  1  0
 11 35  1  0
 11 36  1  0
 12 14  2  0
 12 15  1  0
 13 16  2  0
 13 17  1  0
 14 18  1  0
 14 37  1  0
 15 19  2  0
 15 38  1  0
 16 21  1  0
 16 39  1  0
 17 22  2  0
 17 40  1  0
 18 20  2  0
 18 24  1  0
 19 20  1  0
 19 42  1  0
 21 23  2  0
 21 43  1  0
 22 23  1  0
 22 44  1  0
 23 45  1  0
M  END
> <Name>
3869

> <PUBCHEM_COMPOUND_CID>
3869

> <Toxicity>
0

> <Data Set>
TestSet

$$$$
60825
  SciTegic12242523262D

 26 27  0  0  1  0            999 V2000
    2.3660   -1.8120    0.0000 S   0  0
    3.6750   -0.8610    0.0000 O   0  0
    3.5470   -3.5350    0.0000 O   0  0
    4.5980    0.7260    0.0000 O   0  0
    2.8660    0.7260    0.0000 N   0  0
    3.7320    2.2260    0.0000 N   0  0
    2.8660    3.7260    0.0000 N   0  0
    2.8660   -0.2740    0.0000 C   0  0  2  0  0  0
    2.0570   -0.8610    0.0000 C   0  0
    3.3660   -1.8120    0.0000 C   0  0  1  0  0  0
    3.9540   -2.6210    0.0000 C   0  0
    2.0000    1.2260    0.0000 C   0  0
    3.7320    1.2260    0.0000 C   0  0
    2.0000    2.2260    0.0000 C   0  0
    2.8660    2.7260    0.0000 C   0  0
    3.4180    0.0080    0.0000 H   0  0
    1.7470   -0.3240    0.0000 H   0  0
    1.4910   -1.1140    0.0000 H   0  0
    3.9780   -1.7150    0.0000 H   0  0
    4.4680   -2.9680    0.0000 H   0  0
    4.3840   -2.1750    0.0000 H   0  0
    1.4630    0.9160    0.0000 H   0  0
    1.4630    2.5360    0.0000 H   0  0
    3.9120   -4.0360    0.0000 H   0  0
    2.3290    4.0360    0.0000 H   0  0
    3.4030    4.0360    0.0000 H   0  0
  1  9  1  0
  1 10  1  0
  2  8  1  0
  2 10  1  0
  3 11  1  0
  3 24  1  0
  4 13  2  0
  8  5  1  1
  5 12  1  0
  5 13  1  0
  6 13  1  0
  6 15  2  0
  7 15  1  0
  7 25  1  0
  7 26  1  0
  8  9  1  0
  8 16  1  6
  9 17  1  0
  9 18  1  0
 10 11  1  1
 10 19  1  6
 11 20  1  0
 11 21  1  0
 12 14  2  0
 12 22  1  0
 14 15  1  0
 14 23  1  0
M  END
> <Name>
60825

> <PUBCHEM_COMPOUND_CID>
60825

> <Toxicity>
0

> <Data Set>
TrainingSet

$$$$
3878
  SciTegic12242523262D

 23 24  0  0  0  0            999 V2000
    6.0010    1.1550    0.0000 Cl  0  0
    6.0010    3.1550    0.0000 Cl  0  0
    5.1350   -0.3450    0.0000 N   0  0
    3.4030   -1.3450    0.0000 N   0  0
    2.5370    0.1550    0.0000 N   0  0
    5.1350   -1.3450    0.0000 N   0  0
    4.2690   -2.8450    0.0000 N   0  0
    4.2690    1.1550    0.0000 C   0  0
    4.2690    0.1550    0.0000 C   0  0
    5.1350    1.6550    0.0000 C   0  0
    3.4030    1.6550    0.0000 C   0  0
    3.4030   -0.3450    0.0000 C   0  0
    5.1350    2.6550    0.0000 C   0  0
    3.4030    2.6550    0.0000 C   0  0
    4.2690    3.1550    0.0000 C   0  0
    4.2690   -1.8450    0.0000 C   0  0
    2.8660    1.3450    0.0000 H   0  0
    2.8660    2.9650    0.0000 H   0  0
    4.2690    3.7750    0.0000 H   0  0
    2.0000   -0.1550    0.0000 H   0  0
    2.5370    0.7750    0.0000 H   0  0
    4.8060   -3.1550    0.0000 H   0  0
    3.7320   -3.1550    0.0000 H   0  0
  1 10  1  0
  2 13  1  0
  3  6  1  0
  3  9  2  0
  4 12  2  0
  4 16  1  0
  5 12  1  0
  5 20  1  0
  5 21  1  0
  6 16  2  0
  7 16  1  0
  7 22  1  0
  7 23  1  0
  8  9  1  0
  8 10  2  0
  8 11  1  0
  9 12  1  0
 10 13  1  0
 11 14  2  0
 11 17  1  0
 13 15  2  0
 14 15  1  0
 14 18  1  0
 15 19  1  0
M  END
> <Name>
3878

> <PUBCHEM_COMPOUND_CID>
3878

> <Toxicity>
0

> <Data Set>
TrainingSet

$$$$
3883
  SciTegic12242523262D

 39 41  0  0  0  0            999 V2000
    6.2620    1.4680    0.0000 S   0  0
   11.7620   -2.8620    0.0000 F   0  0
   12.1280   -1.4960    0.0000 F   0  0
   10.3960   -2.4960    0.0000 F   0  0
    9.7620   -1.1300    0.0000 O   0  0
    6.7620    2.3340    0.0000 O   0  0
    4.6780    2.2730    0.0000 N   0  0
    4.6780    0.6630    0.0000 N   0  0
    8.2620    1.4680    0.0000 N   0  0
    6.7620    0.6020    0.0000 C   0  0
    7.7620    0.6020    0.0000 C   0  0
    8.2620   -0.2640    0.0000 C   0  0
    5.2620    1.4680    0.0000 C   0  0
    3.7320    1.9680    0.0000 C   0  0
    3.7320    0.9680    0.0000 C   0  0
    9.2620   -0.2640    0.0000 C   0  0
    7.7620   -1.1300    0.0000 C   0  0
    2.8660    2.4680    0.0000 C   0  0
    9.7620    0.6020    0.0000 C   0  0
    2.8660    0.4680    0.0000 C   0  0
    9.2620    1.4680    0.0000 C   0  0
    2.0000    1.9680    0.0000 C   0  0
    2.0000    0.9680    0.0000 C   0  0
   10.7620   -1.1300    0.0000 C   0  0
   11.2620   -1.9960    0.0000 C   0  0
    6.1790    0.3900    0.0000 H   0  0
    6.8700   -0.0090    0.0000 H   0  0
    4.8710    2.8620    0.0000 H   0  0
    7.2250   -0.8200    0.0000 H   0  0
    7.4520   -1.6670    0.0000 H   0  0
    8.2990   -1.4400    0.0000 H   0  0
    2.8660    3.0880    0.0000 H   0  0
   10.3820    0.6020    0.0000 H   0  0
    2.8660   -0.1520    0.0000 H   0  0
    9.5720    2.0050    0.0000 H   0  0
    1.4630    2.2780    0.0000 H   0  0
    1.4630    0.6580    0.0000 H   0  0
   11.3440   -0.9180    0.0000 H   0  0
   10.6540   -0.5200    0.0000 H   0  0
  1  6  2  0
  1 10  1  0
  1 13  1  0
  2 25  1  0
  3 25  1  0
  4 25  1  0
  5 16  1  0
  5 24  1  0
  7 13  1  0
  7 14  1  0
  7 28  1  0
  8 13  2  0
  8 15  1  0
  9 11  1  0
  9 21  2  0
 10 11  1  0
 10 26  1  0
 10 27  1  0
 11 12  2  0
 12 16  1  0
 12 17  1  0
 14 15  2  0
 14 18  1  0
 15 20  1  0
 16 19  2  0
 17 29  1  0
 17 30  1  0
 17 31  1  0
 18 22  2  0
 18 32  1  0
 19 21  1  0
 19 33  1  0
 20 23  2  0
 20 34  1  0
 21 35  1  0
 22 23  1  0
 22 36  1  0
 23 37  1  0
 24 25  1  0
 24 38  1  0
 24 39  1  0
M  END
> <Name>
3883

> <PUBCHEM_COMPOUND_CID>
3883

> <Toxicity>
0

> <Data Set>
TestSet

$$$$
208908
  SciTegic12242523262D

 66 70  0  0  0  0            999 V2000
   12.3830   -2.2700    0.0000 Cl  0  0
    2.9140   -2.3670    0.0000 S   0  0
   16.6960   -3.8200    0.0000 F   0  0
    7.1010    0.7900    0.0000 O   0  0
    2.0000   -1.9600    0.0000 O   0  0
    3.8270   -2.7740    0.0000 O   0  0
   14.1270   -1.2900    0.0000 O   0  0
    4.7220   -0.4360    0.0000 N   0  0
   10.6860    0.7500    0.0000 N   0  0
   10.6980    3.8200    0.0000 N   0  0
   11.6040    2.2640    0.0000 N   0  0
    4.3150   -1.3490    0.0000 C   0  0
    3.3200   -1.4540    0.0000 C   0  0
    5.7160   -0.3310    0.0000 C   0  0
    6.1230    0.5820    0.0000 C   0  0
    8.0720    2.2850    0.0000 C   0  0
    7.2060    1.7850    0.0000 C   0  0
    9.8040    2.2850    0.0000 C   0  0
    8.9380    1.7850    0.0000 C   0  0
    5.6230    1.4480    0.0000 C   0  0
    6.2920    2.1920    0.0000 C   0  0
    9.8040    3.2850    0.0000 C   0  0
    8.0720    3.2850    0.0000 C   0  0
   10.6980    1.7500    0.0000 C   0  0
    2.5070   -3.2810    0.0000 C   0  0
    8.9380    3.7850    0.0000 C   0  0
   11.5460    0.2400    0.0000 C   0  0
   11.6040    3.3060    0.0000 C   0  0
   11.5350   -0.7600    0.0000 C   0  0
   12.4180    0.7300    0.0000 C   0  0
   13.2660   -0.7800    0.0000 C   0  0
   12.3950   -1.2700    0.0000 C   0  0
   13.2780    0.2200    0.0000 C   0  0
   14.9980   -0.8000    0.0000 C   0  0
   15.8590   -1.3100    0.0000 C   0  0
   15.8470   -2.3100    0.0000 C   0  0
   16.7300   -0.8200    0.0000 C   0  0
   16.7070   -2.8200    0.0000 C   0  0
   17.5900   -1.3300    0.0000 C   0  0
   17.5790   -2.3300    0.0000 C   0  0
    4.2720   -1.9680    0.0000 H   0  0
    4.9160   -1.4990    0.0000 H   0  0
    3.3640   -0.8350    0.0000 H   0  0
    2.7190   -1.3040    0.0000 H   0  0
    5.6730   -0.9500    0.0000 H   0  0
    6.3180   -0.4810    0.0000 H   0  0
    4.3570    0.0660    0.0000 H   0  0
    8.9380    1.1650    0.0000 H   0  0
    5.0060    1.5130    0.0000 H   0  0
    6.1630    2.7980    0.0000 H   0  0
    7.5350    3.5950    0.0000 H   0  0
    1.9400   -3.0290    0.0000 H   0  0
    2.2550   -3.8470    0.0000 H   0  0
    3.0730   -3.5330    0.0000 H   0  0
    8.9380    4.4050    0.0000 H   0  0
   10.1450    0.4460    0.0000 H   0  0
   10.9940   -1.0630    0.0000 H   0  0
   12.4250    1.3500    0.0000 H   0  0
   12.1390    3.6180    0.0000 H   0  0
   13.8180    0.5240    0.0000 H   0  0
   15.4020   -0.3290    0.0000 H   0  0
   14.6050   -0.3200    0.0000 H   0  0
   15.3070   -2.6130    0.0000 H   0  0
   16.7380   -0.2000    0.0000 H   0  0
   18.1310   -1.0260    0.0000 H   0  0
   18.1120   -2.6460    0.0000 H   0  0
  1 32  1  0
  2  5  2  0
  2  6  2  0
  2 13  1  0
  2 25  1  0
  3 38  1  0
  4 15  1  0
  4 17  1  0
  7 31  1  0
  7 34  1  0
  8 12  1  0
  8 14  1  0
  8 47  1  0
  9 24  1  0
  9 27  1  0
  9 56  1  0
 10 22  2  0
 10 28  1  0
 11 24  1  0
 11 28  2  0
 12 13  1  0
 12 41  1  0
 12 42  1  0
 13 43  1  0
 13 44  1  0
 14 15  1  0
 14 45  1  0
 14 46  1  0
 15 20  2  0
 16 17  1  0
 16 19  2  0
 16 23  1  0
 17 21  2  0
 18 19  1  0
 18 22  1  0
 18 24  2  0
 19 48  1  0
 20 21  1  0
 20 49  1  0
 21 50  1  0
 22 26  1  0
 23 26  2  0
 23 51  1  0
 25 52  1  0
 25 53  1  0
 25 54  1  0
 26 55  1  0
 27 29  2  0
 27 30  1  0
 28 59  1  0
 29 32  1  0
 29 57  1  0
 30 33  2  0
 30 58  1  0
 31 32  2  0
 31 33  1  0
 33 60  1  0
 34 35  1  0
 34 61  1  0
 34 62  1  0
 35 36  2  0
 35 37  1  0
 36 38  1  0
 36 63  1  0
 37 39  2  0
 37 64  1  0
 38 40  2  0
 39 40  1  0
 39 65  1  0
 40 66  1  0
M  END
> <Name>
208908

> <PUBCHEM_COMPOUND_CID>
208908

> <Toxicity>
1

> <Data Set>
TestSet

$$$$
11610526
  SciTegic12242523262D

 45 47  0  0  0  0            999 V2000
    5.4640   -2.7500    0.0000 F   0  0
    2.0000   -2.7500    0.0000 F   0  0
    3.7320   -5.7500    0.0000 F   0  0
    2.0000    1.2500    0.0000 O   0  0
    2.8660   -1.2500    0.0000 O   0  0
    2.8660    4.7500    0.0000 N   0  0
    3.7320    0.2500    0.0000 N   0  0
    4.5980   -1.2500    0.0000 N   0  0
    2.8660    2.7500    0.0000 C   0  0
    3.7320    3.2500    0.0000 C   0  0
    2.0000    3.2500    0.0000 C   0  0
    3.7320    4.2500    0.0000 C   0  0
    2.0000    4.2500    0.0000 C   0  0
    2.8660    1.7500    0.0000 C   0  0
    2.8660    5.7500    0.0000 C   0  0
    3.7320    1.2500    0.0000 C   0  0
    4.5980    1.7500    0.0000 C   0  0
    4.5980   -0.2500    0.0000 C   0  0
    5.4640    1.2500    0.0000 C   0  0
    5.4640    0.2500    0.0000 C   0  0
    3.7320   -1.7500    0.0000 C   0  0
    3.7320   -2.7500    0.0000 C   0  0
    4.5980   -3.2500    0.0000 C   0  0
    2.8660   -3.2500    0.0000 C   0  0
    4.5980   -4.2500    0.0000 C   0  0
    2.8660   -4.2500    0.0000 C   0  0
    3.7320   -4.7500    0.0000 C   0  0
    3.4030    2.4400    0.0000 H   0  0
    3.9440    2.6670    0.0000 H   0  0
    4.3430    3.3580    0.0000 H   0  0
    1.3890    3.3580    0.0000 H   0  0
    1.7880    2.6670    0.0000 H   0  0
    4.3430    4.1420    0.0000 H   0  0
    3.9440    4.8330    0.0000 H   0  0
    1.7880    4.8330    0.0000 H   0  0
    1.3890    4.1420    0.0000 H   0  0
    3.4860    5.7500    0.0000 H   0  0
    2.8660    6.3700    0.0000 H   0  0
    2.2460    5.7500    0.0000 H   0  0
    4.5980    2.3700    0.0000 H   0  0
    6.0010    1.5600    0.0000 H   0  0
    6.0010   -0.0600    0.0000 H   0  0
    5.1350   -1.5600    0.0000 H   0  0
    5.1350   -4.5600    0.0000 H   0  0
    2.3290   -4.5600    0.0000 H   0  0
  1 23  1  0
  2 24  1  0
  3 27  1  0
  4 14  2  0
  5 21  2  0
  6 12  1  0
  6 13  1  0
  6 15  1  0
  7 16  2  0
  7 18  1  0
  8 18  1  0
  8 21  1  0
  8 43  1  0
  9 10  1  0
  9 11  1  0
  9 14  1  0
  9 28  1  0
 10 12  1  0
 10 29  1  0
 10 30  1  0
 11 13  1  0
 11 31  1  0
 11 32  1  0
 12 33  1  0
 12 34  1  0
 13 35  1  0
 13 36  1  0
 14 16  1  0
 15 37  1  0
 15 38  1  0
 15 39  1  0
 16 17  1  0
 17 19  2  0
 17 40  1  0
 18 20  2  0
 19 20  1  0
 19 41  1  0
 20 42  1  0
 21 22  1  0
 22 23  2  0
 22 24  1  0
 23 25  1  0
 24 26  2  0
 25 27  2  0
 25 44  1  0
 26 27  1  0
 26 45  1  0
M  END
> <Name>
11610526

> <PUBCHEM_COMPOUND_CID>
11610526

> <Toxicity>
1

> <Data Set>
TrainingSet

$$$$
3899
  SciTegic12242523262D

 28 29  0  0  0  0            999 V2000
    4.6260    4.0190    0.0000 F   0  0
    5.6260    3.0190    0.0000 F   0  0
    3.6260    3.0190    0.0000 F   0  0
    3.2600   -4.0190    0.0000 O   0  0
    2.8940   -0.9810    0.0000 O   0  0
    4.6260   -0.9810    0.0000 N   0  0
    4.2600   -4.0190    0.0000 N   0  0
    4.6260    0.0190    0.0000 C   0  0
    4.6260    2.0190    0.0000 C   0  0
    3.7600   -2.4810    0.0000 C   0  0
    3.7600    0.5190    0.0000 C   0  0
    5.4920    0.5190    0.0000 C   0  0
    3.7600    1.5190    0.0000 C   0  0
    5.4920    1.5190    0.0000 C   0  0
    3.7600   -1.4810    0.0000 C   0  0
    2.9510   -3.0680    0.0000 C   0  0
    4.6260    3.0190    0.0000 C   0  0
    4.5690   -3.0680    0.0000 C   0  0
    2.0000   -2.7590    0.0000 C   0  0
    3.2230    0.2090    0.0000 H   0  0
    6.0290    0.2090    0.0000 H   0  0
    5.1630   -1.2910    0.0000 H   0  0
    3.2230    1.8290    0.0000 H   0  0
    6.0290    1.8290    0.0000 H   0  0
    5.1590   -2.8770    0.0000 H   0  0
    2.1920   -2.1700    0.0000 H   0  0
    1.4100   -2.5680    0.0000 H   0  0
    1.8080   -3.3490    0.0000 H   0  0
  1 17  1  0
  2 17  1  0
  3 17  1  0
  4  7  1  0
  4 16  1  0
  5 15  2  0
  6  8  1  0
  6 15  1  0
  6 22  1  0
  7 18  2  0
  8 11  2  0
  8 12  1  0
  9 13  2  0
  9 14  1  0
  9 17  1  0
 10 15  1  0
 10 16  2  0
 10 18  1  0
 11 13  1  0
 11 20  1  0
 12 14  2  0
 12 21  1  0
 13 23  1  0
 14 24  1  0
 16 19  1  0
 18 25  1  0
 19 26  1  0
 19 27  1  0
 19 28  1  0
M  END
> <Name>
3899

> <PUBCHEM_COMPOUND_CID>
3899

> <Toxicity>
1

> <Data Set>
TestSet

$$$$
3902
  SciTegic12242523262D

 33 35  0  0  0  0            999 V2000
    3.5830    1.7500    0.0000 N   0  0
    2.6690    1.3430    0.0000 N   0  0
    2.5000    2.9520    0.0000 N   0  0
    4.4490   -3.7500    0.0000 N   0  0
    8.7790    3.7500    0.0000 N   0  0
    4.4490    1.2500    0.0000 C   0  0
    4.4490    0.2500    0.0000 C   0  0
    5.3150    1.7500    0.0000 C   0  0
    5.3150   -0.2500    0.0000 C   0  0
    6.1810    1.2500    0.0000 C   0  0
    3.5830   -0.2500    0.0000 C   0  0
    5.3150    2.7500    0.0000 C   0  0
    3.4780    2.7440    0.0000 C   0  0
    5.3150   -1.2500    0.0000 C   0  0
    7.0470    1.7500    0.0000 C   0  0
    3.5830   -1.2500    0.0000 C   0  0
    6.1810    3.2500    0.0000 C   0  0
    4.4490   -1.7500    0.0000 C   0  0
    7.0470    2.7500    0.0000 C   0  0
    2.0000    2.0860    0.0000 C   0  0
    4.4490   -2.7500    0.0000 C   0  0
    7.9130    3.2500    0.0000 C   0  0
    3.9120    0.9400    0.0000 H   0  0
    5.8520    0.0600    0.0000 H   0  0
    6.1810    0.6300    0.0000 H   0  0
    3.0460    0.0600    0.0000 H   0  0
    4.7780    3.0600    0.0000 H   0  0
    3.9390    3.1590    0.0000 H   0  0
    5.8520   -1.5600    0.0000 H   0  0
    7.5840    1.4400    0.0000 H   0  0
    3.0460   -1.5600    0.0000 H   0  0
    6.1810    3.8700    0.0000 H   0  0
    1.3830    2.0220    0.0000 H   0  0
  1  2  1  0
  1  6  1  0
  1 13  1  0
  2 20  2  0
  3 13  2  0
  3 20  1  0
  4 21  3  0
  5 22  3  0
  6  7  1  0
  6  8  1  0
  6 23  1  0
  7  9  2  0
  7 11  1  0
  8 10  2  0
  8 12  1  0
  9 14  1  0
  9 24  1  0
 10 15  1  0
 10 25  1  0
 11 16  2  0
 11 26  1  0
 12 17  2  0
 12 27  1  0
 13 28  1  0
 14 18  2  0
 14 29  1  0
 15 19  2  0
 15 30  1  0
 16 18  1  0
 16 31  1  0
 17 19  1  0
 17 32  1  0
 18 21  1  0
 19 22  1  0
 20 33  1  0
M  END
> <Name>
3902

> <PUBCHEM_COMPOUND_CID>
3902

> <Toxicity>
1

> <Data Set>
TrainingSet

$$$$
5284583
  SciTegic12242523262D

 26 26  0  0  1  0            999 V2000
    5.4920    0.9140    0.0000 O   0  0
    2.0000   -0.3640    0.0000 O   0  0
    3.7320    0.6360    0.0000 N   0  0
    2.8660   -1.8640    0.0000 N   0  0
    2.9230    1.2230    0.0000 C   0  0
    3.7320   -0.3640    0.0000 C   0  0  1  0  0  0
    3.2320    2.1740    0.0000 C   0  0
    4.2320    2.1740    0.0000 C   0  0
    4.5410    1.2230    0.0000 C   0  0
    4.5980   -0.8640    0.0000 C   0  0
    2.8660   -0.8640    0.0000 C   0  0
    4.5980   -1.8640    0.0000 C   0  0
    4.2690   -0.0540    0.0000 H   0  0
    2.3570    1.4760    0.0000 H   0  0
    2.6130    0.6860    0.0000 H   0  0
    3.2970    2.7910    0.0000 H   0  0
    2.6260    2.3030    0.0000 H   0  0
    4.8380    2.3030    0.0000 H   0  0
    4.1670    2.7910    0.0000 H   0  0
    5.2090   -0.9720    0.0000 H   0  0
    4.8100   -0.2820    0.0000 H   0  0
    3.9780   -1.8640    0.0000 H   0  0
    4.5980   -2.4840    0.0000 H   0  0
    5.2180   -1.8640    0.0000 H   0  0
    2.3290   -2.1740    0.0000 H   0  0
    3.4030   -2.1740    0.0000 H   0  0
  1  9  2  0
  2 11  2  0
  3  5  1  0
  3  6  1  0
  3  9  1  0
  4 11  1  0
  4 25  1  0
  4 26  1  0
  5  7  1  0
  5 14  1  0
  5 15  1  0
  6 10  1  1
  6 11  1  0
  6 13  1  6
  7  8  1  0
  7 16  1  0
  7 17  1  0
  8  9  1  0
  8 18  1  0
  8 19  1  0
 10 12  1  0
 10 20  1  0
 10 21  1  0
 12 22  1  0
 12 23  1  0
 12 24  1  0
M  END
> <Name>
5284583

> <PUBCHEM_COMPOUND_CID>
5284583

> <Toxicity>
0

> <Data Set>
TestSet

$$$$
149096
  SciTegic12242523262D

 46 49  0  0  1  0            999 V2000
    6.3300    2.6340    0.0000 F   0  0
    4.5540   -0.3730    0.0000 O   0  0
    8.9180    0.1460    0.0000 O   0  0
    8.9640   -2.8350    0.0000 O   0  0
    9.8010   -1.3180    0.0000 O   0  0
    4.5980    1.6340    0.0000 N   0  0
    6.3460   -1.4070    0.0000 N   0  0
    2.8660    2.6340    0.0000 N   0  0
    3.7320    1.1340    0.0000 C   0  0
    4.5980    2.6340    0.0000 C   0  0
    5.4480   -1.9350    0.0000 C   0  0  2  0  0  0
    5.4640    1.1340    0.0000 C   0  0
    6.3300   -0.3660    0.0000 C   0  0
    5.4640    0.1340    0.0000 C   0  0
    2.8660    1.6340    0.0000 C   0  0
    3.7320    3.1340    0.0000 C   0  0
    4.5460   -1.4140    0.0000 C   0  0
    7.1960    0.1340    0.0000 C   0  0
    6.3300    1.6340    0.0000 C   0  0
    7.2230   -1.8700    0.0000 C   0  0
    7.1960    1.1340    0.0000 C   0  0
    5.4520   -2.9350    0.0000 C   0  0
    8.0560   -0.3610    0.0000 C   0  0
    2.0000    3.1340    0.0000 C   0  0
    8.0690   -1.3520    0.0000 C   0  0
    8.9450   -1.8350    0.0000 C   0  0
    3.3340    0.6590    0.0000 H   0  0
    4.1310    0.6590    0.0000 H   0  0
    5.2090    2.5260    0.0000 H   0  0
    4.8100    3.2170    0.0000 H   0  0
    5.9870   -2.2420    0.0000 H   0  0
    2.2550    1.7420    0.0000 H   0  0
    2.6540    1.0520    0.0000 H   0  0
    4.1310    3.6090    0.0000 H   0  0
    3.3340    3.6090    0.0000 H   0  0
    3.9360   -1.3030    0.0000 H   0  0
    4.3320   -1.9960    0.0000 H   0  0
    7.2430   -2.4900    0.0000 H   0  0
    7.7330    1.4440    0.0000 H   0  0
    4.8320   -2.9370    0.0000 H   0  0
    5.4540   -3.5550    0.0000 H   0  0
    6.0720   -2.9330    0.0000 H   0  0
    2.3100    3.6710    0.0000 H   0  0
    1.4630    3.4440    0.0000 H   0  0
    1.6900    2.5970    0.0000 H   0  0
    9.5070   -3.1340    0.0000 H   0  0
  1 19  1  0
  2 14  1  0
  2 17  1  0
  3 23  2  0
  4 26  1  0
  4 46  1  0
  5 26  2  0
  6  9  1  0
  6 10  1  0
  6 12  1  0
  7 11  1  0
  7 13  1  0
  7 20  1  0
  8 15  1  0
  8 16  1  0
  8 24  1  0
  9 15  1  0
  9 27  1  0
  9 28  1  0
 10 16  1  0
 10 29  1  0
 10 30  1  0
 11 17  1  0
 11 22  1  1
 11 31  1  6
 12 14  1  0
 12 19  2  0
 13 14  2  0
 13 18  1  0
 15 32  1  0
 15 33  1  0
 16 34  1  0
 16 35  1  0
 17 36  1  0
 17 37  1  0
 18 21  2  0
 18 23  1  0
 19 21  1  0
 20 25  2  0
 20 38  1  0
 21 39  1  0
 22 40  1  0
 22 41  1  0
 22 42  1  0
 23 25  1  0
 24 43  1  0
 24 44  1  0
 24 45  1  0
 25 26  1  0
M  END
> <Name>
149096

> <PUBCHEM_COMPOUND_CID>
149096

> <Toxicity>
0

> <Data Set>
TrainingSet

$$$$
13109
  SciTegic12242523262D

 51 54  0  0  1  0            999 V2000
    8.0320    1.8850    0.0000 O   0  0
    2.0000   -2.4240    0.0000 O   0  0
    7.3930    0.6290    0.0000 C   0  0  1  0  0  0
    7.3930   -0.3710    0.0000 C   0  0  2  0  0  0
    6.5270   -0.8710    0.0000 C   0  0  1  0  0  0
    5.6610   -0.3710    0.0000 C   0  0  2  0  0  0
    8.3390    0.9330    0.0000 C   0  0  2  0  0  0
    6.5270    1.1290    0.0000 C   0  0
    8.3390   -0.6760    0.0000 C   0  0
    5.6610    0.6290    0.0000 C   0  0
    4.7510   -0.8780    0.0000 C   0  0  2  0  0  0
    8.9230    0.1290    0.0000 C   0  0
    6.5430   -1.9130    0.0000 C   0  0
    7.3930    1.6290    0.0000 C   0  0
    5.6450   -2.4410    0.0000 C   0  0
    4.7430   -1.9200    0.0000 C   0  0
    3.8240   -0.3140    0.0000 C   0  0
    6.5270    2.1290    0.0000 C   0  0
    9.1490    1.5200    0.0000 C   0  0
    2.8760   -0.8420    0.0000 C   0  0
    3.8080   -2.4700    0.0000 C   0  0
    2.8680   -1.9270    0.0000 C   0  0
    9.9590    2.1060    0.0000 C   0  0
    7.4830   -1.2170    0.0000 H   0  0
    7.2660   -1.2910    0.0000 H   0  0
    6.3970    0.0540    0.0000 H   0  0
    6.9260    1.6040    0.0000 H   0  0
    6.1280    1.6040    0.0000 H   0  0
    8.0880   -1.2430    0.0000 H   0  0
    8.8770   -0.9850    0.0000 H   0  0
    5.4490    1.2110    0.0000 H   0  0
    5.0500    0.5210    0.0000 H   0  0
    4.7670   -0.0280    0.0000 H   0  0
    9.3840   -0.2860    0.0000 H   0  0
    9.3840    0.5430    0.0000 H   0  0
    6.7610   -2.4930    0.0000 H   0  0
    7.1520   -1.7980    0.0000 H   0  0
    8.0040    1.5210    0.0000 H   0  0
    7.6050    2.2110    0.0000 H   0  0
    5.2480   -2.9170    0.0000 H   0  0
    6.0460   -2.9140    0.0000 H   0  0
    4.2320    0.1520    0.0000 H   0  0
    3.4340    0.1680    0.0000 H   0  0
    6.8370    2.6660    0.0000 H   0  0
    5.9900    2.4390    0.0000 H   0  0
    6.2170    1.5920    0.0000 H   0  0
    8.4480    2.3450    0.0000 H   0  0
    2.6720   -0.2570    0.0000 H   0  0
    2.2650   -0.9440    0.0000 H   0  0
    3.8100   -3.0900    0.0000 H   0  0
   10.4620    2.4700    0.0000 H   0  0
  7  1  1  1
  1 47  1  0
  2 22  2  0
  3  4  1  0
  3  7  1  0
  3  8  1  0
  3 14  1  1
  4  5  1  0
  4  9  1  0
  4 24  1  6
  5  6  1  0
  5 13  1  0
  5 25  1  1
  6 10  1  0
  6 11  1  0
  6 26  1  6
  7 12  1  0
  7 19  1  6
  8 10  1  0
  8 27  1  0
  8 28  1  0
  9 12  1  0
  9 29  1  0
  9 30  1  0
 10 31  1  0
 10 32  1  0
 11 16  1  0
 11 17  1  0
 11 33  1  1
 12 34  1  0
 12 35  1  0
 13 15  1  0
 13 36  1  0
 13 37  1  0
 14 18  1  0
 14 38  1  0
 14 39  1  0
 15 16  1  0
 15 40  1  0
 15 41  1  0
 16 21  2  0
 17 20  1  0
 17 42  1  0
 17 43  1  0
 18 44  1  0
 18 45  1  0
 18 46  1  0
 19 23  3  0
 20 22  1  0
 20 48  1  0
 20 49  1  0
 21 22  1  0
 21 50  1  0
 23 51  1  0
M  END
> <Name>
13109

> <PUBCHEM_COMPOUND_CID>
13109

> <Toxicity>
0

> <Data Set>
TrainingSet

$$$$
5819
  SciTegic12242523262D

 35 36  0  0  1  0            999 V2000
    2.5370    0.8100    0.0000 I   0  0
    6.0010    0.8100    0.0000 I   0  0
    6.0010    4.8100    0.0000 I   0  0
    7.7330    1.8100    0.0000 I   0  0
    4.2690    1.8100    0.0000 O   0  0
    2.5370   -4.1900    0.0000 O   0  0
    4.2690   -4.1900    0.0000 O   0  0
    7.7330    3.8100    0.0000 O   0  0
    2.5370   -2.1900    0.0000 N   0  0
    4.2690   -2.1900    0.0000 C   0  0
    3.4030   -2.6900    0.0000 C   0  0  1  0  0  0
    4.2690   -1.1900    0.0000 C   0  0
    5.1350   -0.6900    0.0000 C   0  0
    3.4030   -0.6900    0.0000 C   0  0
    4.2690    0.8100    0.0000 C   0  0
    3.4030    0.3100    0.0000 C   0  0
    5.1350    0.3100    0.0000 C   0  0
    3.4030   -3.6900    0.0000 C   0  0
    5.1350    2.3100    0.0000 C   0  0
    6.0010    1.8100    0.0000 C   0  0
    5.1350    3.3100    0.0000 C   0  0
    6.0010    3.8100    0.0000 C   0  0
    6.8670    2.3100    0.0000 C   0  0
    6.8670    3.3100    0.0000 C   0  0
    4.4810   -2.7730    0.0000 H   0  0
    4.8800   -2.0820    0.0000 H   0  0
    3.4030   -2.0700    0.0000 H   0  0
    5.6720   -1.0000    0.0000 H   0  0
    2.8660   -1.0000    0.0000 H   0  0
    2.0000   -2.5000    0.0000 H   0  0
    2.5370   -1.5700    0.0000 H   0  0
    6.0010    1.1900    0.0000 H   0  0
    4.5980    3.6200    0.0000 H   0  0
    2.5370   -4.8100    0.0000 H   0  0
    7.7330    4.4300    0.0000 H   0  0
  1 16  1  0
  2 17  1  0
  3 22  1  0
  4 23  1  0
  5 15  1  0
  5 19  1  0
  6 18  1  0
  6 34  1  0
  7 18  2  0
  8 24  1  0
  8 35  1  0
  9 11  1  0
  9 30  1  0
  9 31  1  0
 11 10  1  1
 10 12  1  0
 10 25  1  0
 10 26  1  0
 11 18  1  0
 11 27  1  6
 12 13  1  0
 12 14  2  0
 13 17  2  0
 13 28  1  0
 14 16  1  0
 14 29  1  0
 15 16  2  0
 15 17  1  0
 19 20  1  0
 19 21  2  0
 20 23  2  0
 20 32  1  0
 21 22  1  0
 21 33  1  0
 22 24  2  0
 23 24  1  0
M  END
> <Name>
5819

> <PUBCHEM_COMPOUND_CID>
5819

> <Toxicity>
0

> <Data Set>
TrainingSet

$$$$
3676
  SciTegic12242523262D

 39 39  0  0  0  0            999 V2000
    5.4640   -0.2500    0.0000 O   0  0
    5.4640    1.7500    0.0000 N   0  0
    3.7320   -0.2500    0.0000 N   0  0
    4.5980    1.2500    0.0000 C   0  0
    5.4640    2.7500    0.0000 C   0  0
    6.3300    1.2500    0.0000 C   0  0
    3.7320   -1.2500    0.0000 C   0  0
    4.5980    0.2500    0.0000 C   0  0
    4.5980   -1.7500    0.0000 C   0  0
    2.8660   -1.7500    0.0000 C   0  0
    6.3300    3.2500    0.0000 C   0  0
    7.1960    1.7500    0.0000 C   0  0
    4.5980   -2.7500    0.0000 C   0  0
    2.8660   -2.7500    0.0000 C   0  0
    5.4640   -1.2500    0.0000 C   0  0
    2.0000   -1.2500    0.0000 C   0  0
    3.7320   -3.2500    0.0000 C   0  0
    4.3860    1.8330    0.0000 H   0  0
    3.9880    1.1420    0.0000 H   0  0
    5.2520    3.3330    0.0000 H   0  0
    4.8540    2.6420    0.0000 H   0  0
    5.9320    0.7750    0.0000 H   0  0
    6.7290    0.7750    0.0000 H   0  0
    3.1950    0.0600    0.0000 H   0  0
    6.6400    2.7130    0.0000 H   0  0
    6.8670    3.5600    0.0000 H   0  0
    6.0200    3.7870    0.0000 H   0  0
    7.5060    1.2130    0.0000 H   0  0
    7.7330    2.0600    0.0000 H   0  0
    6.8860    2.2870    0.0000 H   0  0
    5.1350   -3.0600    0.0000 H   0  0
    2.3290   -3.0600    0.0000 H   0  0
    5.7740   -1.7870    0.0000 H   0  0
    6.0010   -0.9400    0.0000 H   0  0
    5.1540   -0.7130    0.0000 H   0  0
    2.3100   -0.7130    0.0000 H   0  0
    1.4630   -0.9400    0.0000 H   0  0
    1.6900   -1.7870    0.0000 H   0  0
    3.7320   -3.8700    0.0000 H   0  0
  1  8  2  0
  2  4  1  0
  2  5  1  0
  2  6  1  0
  3  7  1  0
  3  8  1  0
  3 24  1  0
  4  8  1  0
  4 18  1  0
  4 19  1  0
  5 11  1  0
  5 20  1  0
  5 21  1  0
  6 12  1  0
  6 22  1  0
  6 23  1  0
  7  9  2  0
  7 10  1  0
  9 13  1  0
  9 15  1  0
 10 14  2  0
 10 16  1  0
 11 25  1  0
 11 26  1  0
 11 27  1  0
 12 28  1  0
 12 29  1  0
 12 30  1  0
 13 17  2  0
 13 31  1  0
 14 17  1  0
 14 32  1  0
 15 33  1  0
 15 34  1  0
 15 35  1  0
 16 36  1  0
 16 37  1  0
 16 38  1  0
 17 39  1  0
M  END
> <Name>
3676

> <PUBCHEM_COMPOUND_CID>
3676

> <Toxicity>
0

> <Data Set>
TrainingSet

$$$$
727
  SciTegic12242523262D

 18 18  0  0  0  0            999 V2000
    2.0000   -1.0000    0.0000 Cl  0  0
    2.0000    1.0000    0.0000 Cl  0  0
    3.7320   -2.0000    0.0000 Cl  0  0
    3.7320    2.0000    0.0000 Cl  0  0
    5.4640   -1.0000    0.0000 Cl  0  0
    5.4640    1.0000    0.0000 Cl  0  0
    2.8660   -0.5000    0.0000 C   0  0
    2.8660    0.5000    0.0000 C   0  0
    3.7320   -1.0000    0.0000 C   0  0
    3.7320    1.0000    0.0000 C   0  0
    4.5980   -0.5000    0.0000 C   0  0
    4.5980    0.5000    0.0000 C   0  0
    2.3290   -0.1900    0.0000 H   0  0
    2.8660    1.1200    0.0000 H   0  0
    3.1950   -1.3100    0.0000 H   0  0
    4.2690    1.3100    0.0000 H   0  0
    4.5980   -1.1200    0.0000 H   0  0
    5.1350    0.1900    0.0000 H   0  0
  1  7  1  0
  2  8  1  0
  3  9  1  0
  4 10  1  0
  5 11  1  0
  6 12  1  0
  7  8  1  0
  7  9  1  0
  7 13  1  0
  8 10  1  0
  8 14  1  0
  9 11  1  0
  9 15  1  0
 10 12  1  0
 10 16  1  0
 11 12  1  0
 11 17  1  0
 12 18  1  0
M  END
> <Name>
727

> <PUBCHEM_COMPOUND_CID>
727

> <Toxicity>
1

> <Data Set>
TestSet

$$$$
5920
  SciTegic12242523262D

 35 36  0  0  1  0            999 V2000
    6.0010    1.0000    0.0000 I   0  0
    2.5370    1.0000    0.0000 I   0  0
    7.7330    2.0000    0.0000 I   0  0
    4.2690    2.0000    0.0000 O   0  0
    2.5370   -4.0000    0.0000 O   0  0
    4.2690   -4.0000    0.0000 O   0  0
    7.7330    4.0000    0.0000 O   0  0
    2.5370   -2.0000    0.0000 N   0  0
    4.2690   -2.0000    0.0000 C   0  0
    3.4030   -2.5000    0.0000 C   0  0  1  0  0  0
    4.2690   -1.0000    0.0000 C   0  0
    3.4030   -0.5000    0.0000 C   0  0
    5.1350   -0.5000    0.0000 C   0  0
    4.2690    1.0000    0.0000 C   0  0
    5.1350    0.5000    0.0000 C   0  0
    3.4030    0.5000    0.0000 C   0  0
    3.4030   -3.5000    0.0000 C   0  0
    5.1350    2.5000    0.0000 C   0  0
    6.0010    2.0000    0.0000 C   0  0
    5.1350    3.5000    0.0000 C   0  0
    6.8670    2.5000    0.0000 C   0  0
    6.0010    4.0000    0.0000 C   0  0
    6.8670    3.5000    0.0000 C   0  0
    4.4810   -2.5830    0.0000 H   0  0
    4.8800   -1.8920    0.0000 H   0  0
    3.4030   -1.8800    0.0000 H   0  0
    2.8660   -0.8100    0.0000 H   0  0
    5.6720   -0.8100    0.0000 H   0  0
    2.0000   -2.3100    0.0000 H   0  0
    2.5370   -1.3800    0.0000 H   0  0
    6.0010    1.3800    0.0000 H   0  0
    4.5980    3.8100    0.0000 H   0  0
    6.0010    4.6200    0.0000 H   0  0
    2.5370   -4.6200    0.0000 H   0  0
    7.7330    4.6200    0.0000 H   0  0
  1 15  1  0
  2 16  1  0
  3 21  1  0
  4 14  1  0
  4 18  1  0
  5 17  1  0
  5 34  1  0
  6 17  2  0
  7 23  1  0
  7 35  1  0
  8 10  1  0
  8 29  1  0
  8 30  1  0
 10  9  1  1
  9 11  1  0
  9 24  1  0
  9 25  1  0
 10 17  1  0
 10 26  1  6
 11 12  1  0
 11 13  2  0
 12 16  2  0
 12 27  1  0
 13 15  1  0
 13 28  1  0
 14 15  2  0
 14 16  1  0
 18 19  2  0
 18 20  1  0
 19 21  1  0
 19 31  1  0
 20 22  2  0
 20 32  1  0
 21 23  2  0
 22 23  1  0
 22 33  1  0
M  END
> <Name>
5920

> <PUBCHEM_COMPOUND_CID>
5920

> <Toxicity>
0

> <Data Set>
TestSet

$$$$
92727
  SciTegic12242523262D

 94 97  0  0  1  0            999 V2000
    7.1960   -0.5000    0.0000 O   0  0
    5.4640    2.5000    0.0000 O   0  0
    8.9280    3.5000    0.0000 O   0  0
    8.0620   -1.0000    0.0000 O   0  0
    9.7940   -2.0000    0.0000 O   0  0
    7.1960    3.5000    0.0000 N   0  0
    6.3300    1.0000    0.0000 N   0  0
    7.1960   -2.5000    0.0000 N   0  0
    8.0620    5.0000    0.0000 N   0  0
    5.4640    0.5000    0.0000 C   0  0  2  0  0  0
    7.1960    2.5000    0.0000 C   0  0  1  0  0  0
    5.4640   -0.5000    0.0000 C   0  0
    6.3300   -1.0000    0.0000 C   0  0  1  0  0  0
    8.0620    2.0000    0.0000 C   0  0
    6.3300   -2.0000    0.0000 C   0  0  2  0  0  0
    4.5980    1.0000    0.0000 C   0  0
    6.3300    2.0000    0.0000 C   0  0
    6.3300    4.0000    0.0000 C   0  0
    6.3300    5.0000    0.0000 C   0  0
    5.4640   -2.5000    0.0000 C   0  0
    8.0620    4.0000    0.0000 C   0  0
    8.0620    1.0000    0.0000 C   0  0
    8.9280    2.5000    0.0000 C   0  0
    7.1960    5.5000    0.0000 C   0  0
    3.7320    0.5000    0.0000 C   0  0
    5.4640   -3.5000    0.0000 C   0  0
    8.0620   -2.0000    0.0000 C   0  0
    2.8660    1.0000    0.0000 C   0  0
    3.7320   -0.5000    0.0000 C   0  0
    4.5980   -4.0000    0.0000 C   0  0
    6.3300   -4.0000    0.0000 C   0  0
    8.9280   -2.5000    0.0000 C   0  0
    2.0000    0.5000    0.0000 C   0  0
    2.8660   -1.0000    0.0000 C   0  0
    2.0000   -0.5000    0.0000 C   0  0
    4.5980   -5.0000    0.0000 C   0  0
    6.3300   -5.0000    0.0000 C   0  0
    5.4640   -5.5000    0.0000 C   0  0
   10.6600   -2.5000    0.0000 C   0  0
   10.6600   -3.5000    0.0000 C   0  0
   11.5260   -2.0000    0.0000 C   0  0
   11.5260   -4.0000    0.0000 C   0  0
   12.3920   -2.5000    0.0000 C   0  0
    9.7940   -4.0000    0.0000 C   0  0
   11.5260   -1.0000    0.0000 C   0  0
   12.3920   -3.5000    0.0000 C   0  0
    5.4640    1.1200    0.0000 H   0  0
    6.6590    2.8100    0.0000 H   0  0
    4.8540   -0.3920    0.0000 H   0  0
    5.2520   -1.0830    0.0000 H   0  0
    6.8670   -1.3100    0.0000 H   0  0
    8.0620    2.6200    0.0000 H   0  0
    6.3300   -2.6200    0.0000 H   0  0
    6.8670    0.6900    0.0000 H   0  0
    4.9970    1.4750    0.0000 H   0  0
    4.2000    1.4750    0.0000 H   0  0
    5.7200    4.1080    0.0000 H   0  0
    6.1180    3.4170    0.0000 H   0  0
    6.1180    5.5830    0.0000 H   0  0
    5.7200    4.8920    0.0000 H   0  0
    5.2520   -1.9170    0.0000 H   0  0
    4.8540   -2.6080    0.0000 H   0  0
    7.4420    1.0000    0.0000 H   0  0
    8.0620    0.3800    0.0000 H   0  0
    8.6820    1.0000    0.0000 H   0  0
    9.2380    1.9630    0.0000 H   0  0
    9.4650    2.8100    0.0000 H   0  0
    8.6180    3.0370    0.0000 H   0  0
    7.5950    5.9750    0.0000 H   0  0
    6.7980    5.9750    0.0000 H   0  0
    7.1960   -3.1200    0.0000 H   0  0
    8.5990    5.3100    0.0000 H   0  0
    7.1960    0.1200    0.0000 H   0  0
    2.8660    1.6200    0.0000 H   0  0
    4.2690   -0.8100    0.0000 H   0  0
    4.0610   -3.6900    0.0000 H   0  0
    6.8670   -3.6900    0.0000 H   0  0
    8.5300   -2.9750    0.0000 H   0  0
    9.3270   -2.9750    0.0000 H   0  0
    1.4630    0.8100    0.0000 H   0  0
    2.8660   -1.6200    0.0000 H   0  0
    1.4630   -0.8100    0.0000 H   0  0
    4.0610   -5.3100    0.0000 H   0  0
    6.8670   -5.3100    0.0000 H   0  0
    5.4640   -6.1200    0.0000 H   0  0
   11.5260   -4.6200    0.0000 H   0  0
   12.9290   -2.1900    0.0000 H   0  0
    9.4840   -3.4630    0.0000 H   0  0
    9.2570   -4.3100    0.0000 H   0  0
   10.1040   -4.5370    0.0000 H   0  0
   12.1460   -1.0000    0.0000 H   0  0
   11.5260   -0.3800    0.0000 H   0  0
   10.9060   -1.0000    0.0000 H   0  0
   12.9290   -3.8100    0.0000 H   0  0
 13  1  1  6
  1 73  1  0
  2 17  2  0
  3 21  2  0
  4 27  2  0
  5 32  1  0
  5 39  1  0
 11  6  1  1
  6 18  1  0
  6 21  1  0
 10  7  1  6
  7 17  1  0
  7 54  1  0
  8 15  1  0
  8 27  1  0
  8 71  1  0
  9 21  1  0
  9 24  1  0
  9 72  1  0
 10 12  1  0
 10 16  1  0
 10 47  1  1
 11 14  1  0
 11 17  1  0
 11 48  1  6
 12 13  1  0
 12 49  1  0
 12 50  1  0
 13 15  1  0
 13 51  1  1
 14 22  1  0
 14 23  1  0
 14 52  1  0
 15 20  1  1
 15 53  1  6
 16 25  1  0
 16 55  1  0
 16 56  1  0
 18 19  1  0
 18 57  1  0
 18 58  1  0
 19 24  1  0
 19 59  1  0
 19 60  1  0
 20 26  1  0
 20 61  1  0
 20 62  1  0
 22 63  1  0
 22 64  1  0
 22 65  1  0
 23 66  1  0
 23 67  1  0
 23 68  1  0
 24 69  1  0
 24 70  1  0
 25 28  2  0
 25 29  1  0
 26 30  2  0
 26 31  1  0
 27 32  1  0
 28 33  1  0
 28 74  1  0
 29 34  2  0
 29 75  1  0
 30 36  1  0
 30 76  1  0
 31 37  2  0
 31 77  1  0
 32 78  1  0
 32 79  1  0
 33 35  2  0
 33 80  1  0
 34 35  1  0
 34 81  1  0
 35 82  1  0
 36 38  2  0
 36 83  1  0
 37 38  1  0
 37 84  1  0
 38 85  1  0
 39 40  2  0
 39 41  1  0
 40 42  1  0
 40 44  1  0
 41 43  2  0
 41 45  1  0
 42 46  2  0
 42 86  1  0
 43 46  1  0
 43 87  1  0
 44 88  1  0
 44 89  1  0
 44 90  1  0
 45 91  1  0
 45 92  1  0
 45 93  1  0
 46 94  1  0
M  END
> <Name>
92727

> <PUBCHEM_COMPOUND_CID>
92727

> <Toxicity>
0

> <Data Set>
TrainingSet

$$$$
3955
  SciTegic12242523262D

 67 70  0  0  0  0            999 V2000
    7.8660    5.4820    0.0000 Cl  0  0
    5.3660    2.8840    0.0000 O   0  0
    6.5000   -1.6160    0.0000 O   0  0
    5.8660    0.0180    0.0000 N   0  0
    6.9400   -2.8240    0.0000 N   0  0
    5.8660    2.0180    0.0000 C   0  0
    5.0000    1.5180    0.0000 C   0  0
    6.7320    1.5180    0.0000 C   0  0
    5.0000    0.5180    0.0000 C   0  0
    6.7320    0.5180    0.0000 C   0  0
    5.8660   -0.9820    0.0000 C   0  0
    5.0000   -1.4820    0.0000 C   0  0
    5.0000   -2.4820    0.0000 C   0  0
    6.3660    2.8840    0.0000 C   0  0
    5.0000   -3.4820    0.0000 C   0  0
    4.0000   -2.4820    0.0000 C   0  0
    6.0000   -2.4820    0.0000 C   0  0
    7.3660    2.8840    0.0000 C   0  0
    5.8660    3.7500    0.0000 C   0  0
    5.8660   -3.9820    0.0000 C   0  0
    3.5000   -3.3480    0.0000 C   0  0
    4.1340   -3.9820    0.0000 C   0  0
    3.5000   -1.6160    0.0000 C   0  0
    7.8660    3.7500    0.0000 C   0  0
    6.3660    4.6160    0.0000 C   0  0
    7.3660    4.6160    0.0000 C   0  0
    5.8660   -4.9820    0.0000 C   0  0
    2.5000   -3.3480    0.0000 C   0  0
    4.1340   -4.9820    0.0000 C   0  0
    2.5000   -1.6160    0.0000 C   0  0
    7.7060   -2.1810    0.0000 C   0  0
    7.1130   -3.8090    0.0000 C   0  0
    5.0000   -5.4820    0.0000 C   0  0
    2.0000   -2.4820    0.0000 C   0  0
    4.7880    2.1010    0.0000 H   0  0
    4.3890    1.4100    0.0000 H   0  0
    7.3430    1.4100    0.0000 H   0  0
    6.9440    2.1010    0.0000 H   0  0
    4.3890    0.6260    0.0000 H   0  0
    4.7880   -0.0650    0.0000 H   0  0
    6.9440   -0.0650    0.0000 H   0  0
    7.3430    0.6260    0.0000 H   0  0
    6.0780   -1.5650    0.0000 H   0  0
    6.4770   -0.8740    0.0000 H   0  0
    4.7880   -0.8990    0.0000 H   0  0
    4.3890   -1.5900    0.0000 H   0  0
    4.7460    2.8840    0.0000 H   0  0
    7.6760    2.3470    0.0000 H   0  0
    5.2460    3.7500    0.0000 H   0  0
    6.4030   -3.6720    0.0000 H   0  0
    3.8100   -3.8850    0.0000 H   0  0
    3.5970   -3.6720    0.0000 H   0  0
    3.8100   -1.0790    0.0000 H   0  0
    8.4860    3.7500    0.0000 H   0  0
    6.0560    5.1530    0.0000 H   0  0
    6.4030   -5.2920    0.0000 H   0  0
    2.1900   -3.8850    0.0000 H   0  0
    3.5970   -5.2920    0.0000 H   0  0
    2.1900   -1.0790    0.0000 H   0  0
    8.1040   -2.6560    0.0000 H   0  0
    8.1810   -1.7830    0.0000 H   0  0
    7.3070   -1.7060    0.0000 H   0  0
    6.5030   -3.9160    0.0000 H   0  0
    7.2210   -4.4190    0.0000 H   0  0
    7.7240   -3.7010    0.0000 H   0  0
    5.0000   -6.1020    0.0000 H   0  0
    1.3800   -2.4820    0.0000 H   0  0
  1 26  1  0
  2  6  1  0
  2 47  1  0
  3 17  2  0
  4  9  1  0
  4 10  1  0
  4 11  1  0
  5 17  1  0
  5 31  1  0
  5 32  1  0
  6  7  1  0
  6  8  1  0
  6 14  1  0
  7  9  1  0
  7 35  1  0
  7 36  1  0
  8 10  1  0
  8 37  1  0
  8 38  1  0
  9 39  1  0
  9 40  1  0
 10 41  1  0
 10 42  1  0
 11 12  1  0
 11 43  1  0
 11 44  1  0
 12 13  1  0
 12 45  1  0
 12 46  1  0
 13 15  1  0
 13 16  1  0
 13 17  1  0
 14 18  2  0
 14 19  1  0
 15 20  2  0
 15 22  1  0
 16 21  2  0
 16 23  1  0
 18 24  1  0
 18 48  1  0
 19 25  2  0
 19 49  1  0
 20 27  1  0
 20 50  1  0
 21 28  1  0
 21 51  1  0
 22 29  2  0
 22 52  1  0
 23 30  2  0
 23 53  1  0
 24 26  2  0
 24 54  1  0
 25 26  1  0
 25 55  1  0
 27 33  2  0
 27 56  1  0
 28 34  2  0
 28 57  1  0
 29 33  1  0
 29 58  1  0
 30 34  1  0
 30 59  1  0
 31 60  1  0
 31 61  1  0
 31 62  1  0
 32 63  1  0
 32 64  1  0
 32 65  1  0
 33 66  1  0
 34 67  1  0
M  END
> <Name>
3955

> <PUBCHEM_COMPOUND_CID>
3955

> <Toxicity>
0

> <Data Set>
TestSet

$$$$
3957
  SciTegic12242523262D

 50 53  0  0  0  0            999 V2000
    2.0000    3.2320    0.0000 Cl  0  0
    6.7030   -2.5950    0.0000 O   0  0
    4.9710   -2.5950    0.0000 O   0  0
    5.8370   -1.0950    0.0000 N   0  0
    7.4910    1.6180    0.0000 N   0  0
    5.8370    0.9050    0.0000 C   0  0
    4.9710    0.4050    0.0000 C   0  0
    6.7030    0.4050    0.0000 C   0  0
    5.8370    1.9050    0.0000 C   0  0
    4.9710   -0.5950    0.0000 C   0  0
    6.7030   -0.5950    0.0000 C   0  0
    4.9360    2.3390    0.0000 C   0  0
    6.7380    2.3390    0.0000 C   0  0
    4.7140    3.3140    0.0000 C   0  0
    5.3370    4.0950    0.0000 C   0  0
    6.3370    4.0950    0.0000 C   0  0
    6.9610    3.3140    0.0000 C   0  0
    4.1840    1.6180    0.0000 C   0  0
    5.8370   -2.0950    0.0000 C   0  0
    3.7230    3.6360    0.0000 C   0  0
    7.9510    3.6360    0.0000 C   0  0
    3.1860    1.9180    0.0000 C   0  0
    2.9540    2.9330    0.0000 C   0  0
    8.7200    2.9330    0.0000 C   0  0
    8.4890    1.9180    0.0000 C   0  0
    6.7030   -3.5950    0.0000 C   0  0
    7.5690   -4.0950    0.0000 C   0  0
    4.7590    0.9870    0.0000 H   0  0
    4.3610    0.2970    0.0000 H   0  0
    7.3140    0.2970    0.0000 H   0  0
    6.9160    0.9870    0.0000 H   0  0
    4.3610   -0.4880    0.0000 H   0  0
    4.7590   -1.1780    0.0000 H   0  0
    6.9160   -1.1780    0.0000 H   0  0
    7.3140   -0.4880    0.0000 H   0  0
    5.4750    4.7000    0.0000 H   0  0
    4.7790    4.3640    0.0000 H   0  0
    6.8960    4.3640    0.0000 H   0  0
    6.2000    4.7000    0.0000 H   0  0
    4.3290    1.0160    0.0000 H   0  0
    3.5920    4.2420    0.0000 H   0  0
    8.0820    4.2420    0.0000 H   0  0
    2.7330    1.4940    0.0000 H   0  0
    9.3120    3.1180    0.0000 H   0  0
    8.9420    1.4940    0.0000 H   0  0
    6.0930   -3.4880    0.0000 H   0  0
    6.4910   -4.1780    0.0000 H   0  0
    7.2590   -4.6320    0.0000 H   0  0
    8.1060   -4.4050    0.0000 H   0  0
    7.8790   -3.5580    0.0000 H   0  0
  1 23  1  0
  2 19  1  0
  2 26  1  0
  3 19  2  0
  4 10  1  0
  4 11  1  0
  4 19  1  0
  5 13  2  0
  5 25  1  0
  6  7  1  0
  6  8  1  0
  6  9  2  0
  7 10  1  0
  7 28  1  0
  7 29  1  0
  8 11  1  0
  8 30  1  0
  8 31  1  0
  9 12  1  0
  9 13  1  0
 10 32  1  0
 10 33  1  0
 11 34  1  0
 11 35  1  0
 12 14  2  0
 12 18  1  0
 13 17  1  0
 14 15  1  0
 14 20  1  0
 15 16  1  0
 15 36  1  0
 15 37  1  0
 16 17  1  0
 16 38  1  0
 16 39  1  0
 17 21  2  0
 18 22  2  0
 18 40  1  0
 20 23  2  0
 20 41  1  0
 21 24  1  0
 21 42  1  0
 22 23  1  0
 22 43  1  0
 24 25  2  0
 24 44  1  0
 25 45  1  0
 26 27  1  0
 26 46  1  0
 26 47  1  0
 27 48  1  0
 27 49  1  0
 27 50  1  0
M  END
> <Name>
3957

> <PUBCHEM_COMPOUND_CID>
3957

> <Toxicity>
0

> <Data Set>
TrainingSet

$$$$
3964
  SciTegic12242523262D

 41 44  0  0  0  0            999 V2000
    2.0000   -1.4270    0.0000 Cl  0  0
    5.8370   -2.7540    0.0000 O   0  0
    4.9040    0.3380    0.0000 N   0  0
    4.0360    2.1400    0.0000 N   0  0
    6.3370   -0.5640    0.0000 N   0  0
    5.4670    1.1640    0.0000 C   0  0
    3.9060    0.4120    0.0000 C   0  0
    5.0330    2.0650    0.0000 C   0  0
    3.4720    1.3130    0.0000 C   0  0
    5.3370   -0.5640    0.0000 C   0  0
    3.6020    3.0400    0.0000 C   0  0
    4.7140   -1.3450    0.0000 C   0  0
    4.9360   -2.3200    0.0000 C   0  0
    6.9610   -1.3450    0.0000 C   0  0
    3.7230   -1.0230    0.0000 C   0  0
    6.7380   -2.3200    0.0000 C   0  0
    4.1840   -3.0400    0.0000 C   0  0
    2.9540   -1.7260    0.0000 C   0  0
    3.1860   -2.7410    0.0000 C   0  0
    7.9510   -1.0230    0.0000 C   0  0
    7.4910   -3.0400    0.0000 C   0  0
    8.7200   -1.7260    0.0000 C   0  0
    8.4890   -2.7410    0.0000 C   0  0
    5.9110    0.7310    0.0000 H   0  0
    5.9700    1.5260    0.0000 H   0  0
    3.3100    0.2440    0.0000 H   0  0
    3.9680   -0.2050    0.0000 H   0  0
    5.6300    2.2330    0.0000 H   0  0
    4.9710    2.6820    0.0000 H   0  0
    3.0290    1.7460    0.0000 H   0  0
    2.9690    0.9510    0.0000 H   0  0
    4.1600    3.3090    0.0000 H   0  0
    3.3330    3.5990    0.0000 H   0  0
    3.0430    2.7710    0.0000 H   0  0
    3.5920   -0.4170    0.0000 H   0  0
    4.3290   -3.6430    0.0000 H   0  0
    2.7330   -3.1640    0.0000 H   0  0
    8.0820   -0.4170    0.0000 H   0  0
    7.3460   -3.6430    0.0000 H   0  0
    9.3120   -1.5400    0.0000 H   0  0
    8.9420   -3.1640    0.0000 H   0  0
  1 18  1  0
  2 13  1  0
  2 16  1  0
  3  6  1  0
  3  7  1  0
  3 10  1  0
  4  8  1  0
  4  9  1  0
  4 11  1  0
  5 10  2  0
  5 14  1  0
  6  8  1  0
  6 24  1  0
  6 25  1  0
  7  9  1  0
  7 26  1  0
  7 27  1  0
  8 28  1  0
  8 29  1  0
  9 30  1  0
  9 31  1  0
 10 12  1  0
 11 32  1  0
 11 33  1  0
 11 34  1  0
 12 13  2  0
 12 15  1  0
 13 17  1  0
 14 16  2  0
 14 20  1  0
 15 18  2  0
 15 35  1  0
 16 21  1  0
 17 19  2  0
 17 36  1  0
 18 19  1  0
 19 37  1  0
 20 22  2  0
 20 38  1  0
 21 23  2  0
 21 39  1  0
 22 23  1  0
 22 40  1  0
 23 41  1  0
M  END
> <Name>
3964

> <PUBCHEM_COMPOUND_CID>
3964

> <Toxicity>
1

> <Data Set>
TrainingSet

$$$$
5761
  SciTegic12242523262D

 49 52  0  0  1  0            999 V2000
    2.0120    0.8670    0.0000 O   0  0
    5.5440    0.8670    0.0000 N   0  0
    6.5320   -3.3240    0.0000 N   0  0
    2.8720    2.3700    0.0000 N   0  0
    5.5280   -0.1750    0.0000 C   0  0  1  0  0  0
    4.6620   -0.6750    0.0000 C   0  0
    6.3940   -0.6750    0.0000 C   0  0
    3.7440    0.8740    0.0000 C   0  0  1  0  0  0
    4.6460    1.3940    0.0000 C   0  0
    6.3940   -1.6750    0.0000 C   0  0
    4.6620   -1.6750    0.0000 C   0  0
    5.5280   -2.1750    0.0000 C   0  0
    3.7520   -0.1680    0.0000 C   0  0
    5.5440   -3.2160    0.0000 C   0  0
    6.4160    1.3570    0.0000 C   0  0
    2.8760    1.3700    0.0000 C   0  0
    7.0120   -2.4530    0.0000 C   0  0
    3.7520   -2.1820    0.0000 C   0  0
    4.6460   -3.7440    0.0000 C   0  0
    3.7440   -3.2230    0.0000 C   0  0
    2.0040    2.8670    0.0000 C   0  0
    3.7360    2.8740    0.0000 C   0  0
    2.0000    3.8670    0.0000 C   0  0
    3.7320    3.8740    0.0000 C   0  0
    6.2670    0.2440    0.0000 H   0  0
    7.0040   -0.7820    0.0000 H   0  0
    6.6060   -0.0920    0.0000 H   0  0
    3.7420    1.4940    0.0000 H   0  0
    5.0470    1.8670    0.0000 H   0  0
    4.2480    1.8700    0.0000 H   0  0
    3.2180   -0.4840    0.0000 H   0  0
    6.7190    0.8160    0.0000 H   0  0
    6.9560    1.6600    0.0000 H   0  0
    6.1120    1.8970    0.0000 H   0  0
    7.6300   -2.4020    0.0000 H   0  0
    3.2180   -1.8660    0.0000 H   0  0
    6.8180   -3.8740    0.0000 H   0  0
    4.6480   -4.3640    0.0000 H   0  0
    3.2060   -3.5310    0.0000 H   0  0
    1.3930    2.9720    0.0000 H   0  0
    1.7940    2.2840    0.0000 H   0  0
    3.9500    2.2920    0.0000 H   0  0
    4.3460    2.9840    0.0000 H   0  0
    2.6200    3.8690    0.0000 H   0  0
    1.9980    4.4870    0.0000 H   0  0
    1.3800    3.8640    0.0000 H   0  0
    4.3520    3.8760    0.0000 H   0  0
    3.7300    4.4940    0.0000 H   0  0
    3.1120    3.8710    0.0000 H   0  0
  1 16  2  0
  2  5  1  0
  2  9  1  0
  2 15  1  0
  3 14  1  0
  3 17  1  0
  3 37  1  0
  4 16  1  0
  4 21  1  0
  4 22  1  0
  5  6  1  0
  5  7  1  0
  5 25  1  1
  6 11  1  0
  6 13  2  0
  7 10  1  0
  7 26  1  0
  7 27  1  0
  8  9  1  0
  8 13  1  0
  8 16  1  1
  8 28  1  6
  9 29  1  0
  9 30  1  0
 10 12  1  0
 10 17  2  0
 11 12  2  0
 11 18  1  0
 12 14  1  0
 13 31  1  0
 14 19  2  0
 15 32  1  0
 15 33  1  0
 15 34  1  0
 17 35  1  0
 18 20  2  0
 18 36  1  0
 19 20  1  0
 19 38  1  0
 20 39  1  0
 21 23  1  0
 21 40  1  0
 21 41  1  0
 22 24  1  0
 22 42  1  0
 22 43  1  0
 23 44  1  0
 23 45  1  0
 23 46  1  0
 24 47  1  0
 24 48  1  0
 24 49  1  0
M  END
> <Name>
5761

> <PUBCHEM_COMPOUND_CID>
5761

> <Toxicity>
1

> <Data Set>
TestSet

$$$$
5962
  SciTegic12242523262D

 24 23  0  0  1  0            999 V2000
    6.0010    1.4050    0.0000 O   0  0
    5.1350    2.9050    0.0000 O   0  0
    3.4030    1.9050    0.0000 N   0  0
    2.5370   -2.5950    0.0000 N   0  0
    3.4030   -0.0950    0.0000 C   0  0
    4.2690    0.4050    0.0000 C   0  0
    3.4030   -1.0950    0.0000 C   0  0
    4.2690    1.4050    0.0000 C   0  0  1  0  0  0
    2.5370   -1.5950    0.0000 C   0  0
    5.1350    1.9050    0.0000 C   0  0
    3.1910    0.4880    0.0000 H   0  0
    2.7920   -0.2030    0.0000 H   0  0
    4.4810   -0.1780    0.0000 H   0  0
    4.8800    0.5130    0.0000 H   0  0
    3.6150   -1.6780    0.0000 H   0  0
    4.0130   -0.9870    0.0000 H   0  0
    4.2690    2.0250    0.0000 H   0  0
    2.3250   -1.0120    0.0000 H   0  0
    1.9260   -1.7030    0.0000 H   0  0
    2.8660    1.5950    0.0000 H   0  0
    3.4030    2.5250    0.0000 H   0  0
    2.0000   -2.9050    0.0000 H   0  0
    3.0740   -2.9050    0.0000 H   0  0
    6.5380    1.7150    0.0000 H   0  0
  1 10  1  0
  1 24  1  0
  2 10  2  0
  3  8  1  0
  3 20  1  0
  3 21  1  0
  4  9  1  0
  4 22  1  0
  4 23  1  0
  5  6  1  0
  5  7  1  0
  5 11  1  0
  5 12  1  0
  6  8  1  0
  6 13  1  0
  6 14  1  0
  7  9  1  0
  7 15  1  0
  7 16  1  0
  8 10  1  6
  8 17  1  1
  9 18  1  0
  9 19  1  0
M  END
> <Name>
5962

> <PUBCHEM_COMPOUND_CID>
5962

> <Toxicity>
0

> <Data Set>
TrainingSet

$$$$
16004692
  SciTegic12242523262D

 52 54  0  0  0  0            999 V2000
    8.0620    3.0000    0.0000 Br  0  0
   15.8560    0.5000    0.0000 Br  0  0
    5.4640   -1.5000    0.0000 S   0  0
    9.7940   -1.0000    0.0000 O   0  0
    4.9640   -0.6340    0.0000 O   0  0
    5.9640   -2.3660    0.0000 O   0  0
   12.3920   -1.5000    0.0000 O   0  0
    4.5980   -2.0000    0.0000 N   0  0
    6.3300   -1.0000    0.0000 N   0  0
    7.1960   -2.5000    0.0000 N   0  0
    8.9280   -2.5000    0.0000 N   0  0
   14.1240   -1.5000    0.0000 N   0  0
   13.2580    0.0000    0.0000 N   0  0
    3.7320   -1.5000    0.0000 C   0  0
    8.0620   -1.0000    0.0000 C   0  0
    7.1960   -1.5000    0.0000 C   0  0
    2.8660   -2.0000    0.0000 C   0  0
    8.0620    0.0000    0.0000 C   0  0
    8.9280   -1.5000    0.0000 C   0  0
    2.0000   -1.5000    0.0000 C   0  0
    8.9280    0.5000    0.0000 C   0  0
    7.1960    0.5000    0.0000 C   0  0
   10.6600   -1.5000    0.0000 C   0  0
    8.9280    1.5000    0.0000 C   0  0
    7.1960    1.5000    0.0000 C   0  0
    8.0620   -3.0000    0.0000 C   0  0
   11.5260   -1.0000    0.0000 C   0  0
    8.0620    2.0000    0.0000 C   0  0
   13.2580   -1.0000    0.0000 C   0  0
   14.9900   -1.0000    0.0000 C   0  0
   14.1240    0.5000    0.0000 C   0  0
   14.9900    0.0000    0.0000 C   0  0
    4.1310   -1.0250    0.0000 H   0  0
    3.3340   -1.0250    0.0000 H   0  0
    2.4680   -2.4750    0.0000 H   0  0
    3.2650   -2.4750    0.0000 H   0  0
    4.5980   -2.6200    0.0000 H   0  0
    6.3300   -0.3800    0.0000 H   0  0
    2.3100   -0.9630    0.0000 H   0  0
    1.4630   -1.1900    0.0000 H   0  0
    1.6900   -2.0370    0.0000 H   0  0
    9.4650    0.1900    0.0000 H   0  0
    6.6590    0.1900    0.0000 H   0  0
   10.2620   -1.9750    0.0000 H   0  0
   11.0590   -1.9750    0.0000 H   0  0
    9.4650    1.8100    0.0000 H   0  0
    6.6590    1.8100    0.0000 H   0  0
    8.0620   -3.6200    0.0000 H   0  0
   11.9250   -0.5250    0.0000 H   0  0
   11.1280   -0.5250    0.0000 H   0  0
   15.5270   -1.3100    0.0000 H   0  0
   14.1240    1.1200    0.0000 H   0  0
  1 28  1  0
  2 32  1  0
  3  5  2  0
  3  6  2  0
  3  8  1  0
  3  9  1  0
  4 19  1  0
  4 23  1  0
  7 27  1  0
  7 29  1  0
  8 14  1  0
  8 37  1  0
  9 16  1  0
  9 38  1  0
 10 16  2  0
 10 26  1  0
 11 19  1  0
 11 26  2  0
 12 29  2  0
 12 30  1  0
 13 29  1  0
 13 31  2  0
 14 17  1  0
 14 33  1  0
 14 34  1  0
 15 16  1  0
 15 18  1  0
 15 19  2  0
 17 20  1  0
 17 35  1  0
 17 36  1  0
 18 21  2  0
 18 22  1  0
 20 39  1  0
 20 40  1  0
 20 41  1  0
 21 24  1  0
 21 42  1  0
 22 25  2  0
 22 43  1  0
 23 27  1  0
 23 44  1  0
 23 45  1  0
 24 28  2  0
 24 46  1  0
 25 28  1  0
 25 47  1  0
 26 48  1  0
 27 49  1  0
 27 50  1  0
 30 32  2  0
 30 51  1  0
 31 32  1  0
 31 52  1  0
M  END
> <Name>
16004692

> <PUBCHEM_COMPOUND_CID>
16004692

> <Toxicity>
1

> <Data Set>
TestSet

$$$$
4046
  SciTegic12242523262D

 42 44  0  0  1  0            999 V2000
    5.9800   -2.3490    0.0000 F   0  0
    7.3460   -1.9830    0.0000 F   0  0
    6.9800   -0.6170    0.0000 F   0  0
    3.0120   -3.5170    0.0000 F   0  0
    2.0000   -2.5290    0.0000 F   0  0
    4.0000   -2.5060    0.0000 F   0  0
    3.8820    2.0170    0.0000 O   0  0
    5.6140    3.0170    0.0000 N   0  0
    4.7480   -1.4830    0.0000 N   0  0
    5.6140    2.0170    0.0000 C   0  0
    6.4800    1.5170    0.0000 C   0  0
    4.7480    1.5170    0.0000 C   0  0
    7.3460    2.0170    0.0000 C   0  0
    7.3460    3.0170    0.0000 C   0  0
    6.4800    3.5170    0.0000 C   0  0
    4.7480    0.5170    0.0000 C   0  0
    3.8820    0.0170    0.0000 C   0  0
    5.6140    0.0170    0.0000 C   0  0
    3.8820   -0.9830    0.0000 C   0  0
    5.6140   -0.9830    0.0000 C   0  0
    2.9880    0.5520    0.0000 C   0  0
    2.9880   -1.5170    0.0000 C   0  0
    2.0820    0.0380    0.0000 C   0  0
    2.0820   -1.0040    0.0000 C   0  0
    6.4800   -1.4830    0.0000 C   0  0
    3.0000   -2.5170    0.0000 C   0  0
    5.0770    2.3270    0.0000 H   0  0
    6.0820    1.0420    0.0000 H   0  0
    6.8790    1.0420    0.0000 H   0  0
    4.2110    1.2070    0.0000 H   0  0
    7.5580    1.4350    0.0000 H   0  0
    7.9570    2.1250    0.0000 H   0  0
    7.9570    2.9100    0.0000 H   0  0
    7.5580    3.6000    0.0000 H   0  0
    5.0770    3.3270    0.0000 H   0  0
    6.8790    3.9920    0.0000 H   0  0
    6.0820    3.9920    0.0000 H   0  0
    6.1510    0.3270    0.0000 H   0  0
    3.8820    2.6370    0.0000 H   0  0
    2.9960    1.1720    0.0000 H   0  0
    1.5470    0.3500    0.0000 H   0  0
    1.5470   -1.3160    0.0000 H   0  0
  1 25  1  0
  2 25  1  0
  3 25  1  0
  4 26  1  0
  5 26  1  0
  6 26  1  0
  7 12  1  0
  7 39  1  0
  8 10  1  0
  8 15  1  0
  8 35  1  0
  9 19  2  0
  9 20  1  0
 10 11  1  0
 10 12  1  0
 10 27  1  0
 11 13  1  0
 11 28  1  0
 11 29  1  0
 12 16  1  0
 12 30  1  0
 13 14  1  0
 13 31  1  0
 13 32  1  0
 14 15  1  0
 14 33  1  0
 14 34  1  0
 15 36  1  0
 15 37  1  0
 16 17  2  0
 16 18  1  0
 17 19  1  0
 17 21  1  0
 18 20  2  0
 18 38  1  0
 19 22  1  0
 20 25  1  0
 21 23  2  0
 21 40  1  0
 22 24  2  0
 22 26  1  0
 23 24  1  0
 23 41  1  0
 24 42  1  0
M  END
> <Name>
4046

> <PUBCHEM_COMPOUND_CID>
4046

> <Toxicity>
0

> <Data Set>
TrainingSet

$$$$
19090
  SciTegic12242523262D

 55 58  0  0  1  0            999 V2000
    8.0320    2.3480    0.0000 O   0  0
    9.0460    2.9780    0.0000 O   0  0
    2.0000   -1.9610    0.0000 O   0  0
    7.3930    1.0920    0.0000 C   0  0  1  0  0  0
    7.3930    0.0920    0.0000 C   0  0  2  0  0  0
    6.5270   -0.4080    0.0000 C   0  0  1  0  0  0
    5.6610    0.0920    0.0000 C   0  0  1  0  0  0
    8.3390    1.3960    0.0000 C   0  0  1  0  0  0
    6.5270    1.5920    0.0000 C   0  0
    8.3390   -0.2130    0.0000 C   0  0
    4.7510   -0.4150    0.0000 C   0  0  2  0  0  0
    5.6610    1.0920    0.0000 C   0  0
    8.9230    0.5920    0.0000 C   0  0
    7.3930    2.0920    0.0000 C   0  0
    6.5430   -1.4500    0.0000 C   0  0
    4.7430   -1.4570    0.0000 C   0  0
    3.8240    0.1490    0.0000 C   0  0
    5.6450   -1.9780    0.0000 C   0  0
    9.1490    1.9830    0.0000 C   0  0
    4.7590    0.5850    0.0000 C   0  0
    2.8760   -0.3790    0.0000 C   0  0
    3.8080   -2.0060    0.0000 C   0  0
    2.8680   -1.4640    0.0000 C   0  0
    5.6490   -2.9780    0.0000 C   0  0
   10.0620    1.5740    0.0000 C   0  0
    7.4830   -0.7540    0.0000 H   0  0
    7.2660   -0.8280    0.0000 H   0  0
    6.3970    0.5170    0.0000 H   0  0
    6.9260    2.0670    0.0000 H   0  0
    6.1280    2.0670    0.0000 H   0  0
    8.0880   -0.7800    0.0000 H   0  0
    8.8770   -0.5220    0.0000 H   0  0
    5.4490    1.6740    0.0000 H   0  0
    5.0500    0.9840    0.0000 H   0  0
    9.3840    0.1770    0.0000 H   0  0
    9.3840    1.0060    0.0000 H   0  0
    8.0130    2.0920    0.0000 H   0  0
    7.3930    2.7120    0.0000 H   0  0
    6.7730    2.0920    0.0000 H   0  0
    7.0840   -1.7540    0.0000 H   0  0
    4.2320    0.6160    0.0000 H   0  0
    3.4340    0.6310    0.0000 H   0  0
    5.3790    0.5800    0.0000 H   0  0
    4.7640    1.2050    0.0000 H   0  0
    4.1390    0.5900    0.0000 H   0  0
    8.4480    2.8080    0.0000 H   0  0
    2.6720    0.2060    0.0000 H   0  0
    2.2650   -0.4800    0.0000 H   0  0
    3.8100   -2.6260    0.0000 H   0  0
    5.0290   -2.9800    0.0000 H   0  0
    5.6510   -3.5980    0.0000 H   0  0
    6.2690   -2.9750    0.0000 H   0  0
    9.8090    1.0090    0.0000 H   0  0
   10.6280    1.3210    0.0000 H   0  0
   10.3150    2.1400    0.0000 H   0  0
  8  1  1  6
  1 46  1  0
  2 19  2  0
  3 23  2  0
  4  5  1  0
  4  8  1  0
  4  9  1  0
  4 14  1  1
  5  6  1  0
  5 10  1  0
  5 26  1  6
  6  7  1  0
  6 15  1  0
  6 27  1  1
  7 11  1  0
  7 12  1  0
  7 28  1  6
  8 13  1  0
  8 19  1  1
  9 12  1  0
  9 29  1  0
  9 30  1  0
 10 13  1  0
 10 31  1  0
 10 32  1  0
 11 16  1  0
 11 17  1  0
 11 20  1  1
 12 33  1  0
 12 34  1  0
 13 35  1  0
 13 36  1  0
 14 37  1  0
 14 38  1  0
 14 39  1  0
 15 18  2  0
 15 40  1  0
 16 18  1  0
 16 22  2  0
 17 21  1  0
 17 41  1  0
 17 42  1  0
 18 24  1  0
 19 25  1  0
 20 43  1  0
 20 44  1  0
 20 45  1  0
 21 23  1  0
 21 47  1  0
 21 48  1  0
 22 23  1  0
 22 49  1  0
 24 50  1  0
 24 51  1  0
 24 52  1  0
 25 53  1  0
 25 54  1  0
 25 55  1  0
M  END
> <Name>
19090

> <PUBCHEM_COMPOUND_CID>
19090

> <Toxicity>
1

> <Data Set>
TrainingSet

$$$$
460612
  SciTegic12242523262D

 37 37  0  0  1  0            999 V2000
    6.0010    4.3100    0.0000 Cl  0  0
    2.5370    4.3100    0.0000 Cl  0  0
    2.5370   -3.6900    0.0000 O   0  0
    4.2690   -3.6900    0.0000 O   0  0
    4.2690    2.3100    0.0000 N   0  0
    2.5370   -1.6900    0.0000 N   0  0
    4.2690    1.3100    0.0000 C   0  0
    4.2690   -1.6900    0.0000 C   0  0
    4.2690   -0.6900    0.0000 C   0  0
    5.1350    2.8100    0.0000 C   0  0
    3.4030    2.8100    0.0000 C   0  0
    3.4030   -2.1900    0.0000 C   0  0  1  0  0  0
    5.1350    0.8100    0.0000 C   0  0
    3.4030    0.8100    0.0000 C   0  0
    5.1350   -0.1900    0.0000 C   0  0
    3.4030   -0.1900    0.0000 C   0  0
    5.1350    3.8100    0.0000 C   0  0
    3.4030    3.8100    0.0000 C   0  0
    3.4030   -3.1900    0.0000 C   0  0
    4.4810   -2.2730    0.0000 H   0  0
    4.8800   -1.5820    0.0000 H   0  0
    5.3470    2.2270    0.0000 H   0  0
    5.7460    2.9180    0.0000 H   0  0
    2.7920    2.9180    0.0000 H   0  0
    3.1910    2.2270    0.0000 H   0  0
    3.4030   -1.5700    0.0000 H   0  0
    5.6720    1.1200    0.0000 H   0  0
    2.8660    1.1200    0.0000 H   0  0
    5.6720   -0.5000    0.0000 H   0  0
    2.8660   -0.5000    0.0000 H   0  0
    4.9230    4.3930    0.0000 H   0  0
    4.5240    3.7020    0.0000 H   0  0
    4.0130    3.7020    0.0000 H   0  0
    3.6150    4.3930    0.0000 H   0  0
    2.0000   -2.0000    0.0000 H   0  0
    2.5370   -1.0700    0.0000 H   0  0
    2.5370   -4.3100    0.0000 H   0  0
  1 17  1  0
  2 18  1  0
  3 19  1  0
  3 37  1  0
  4 19  2  0
  5  7  1  0
  5 10  1  0
  5 11  1  0
  6 12  1  0
  6 35  1  0
  6 36  1  0
  7 13  2  0
  7 14  1  0
  8  9  1  0
 12  8  1  1
  8 20  1  0
  8 21  1  0
  9 15  2  0
  9 16  1  0
 10 17  1  0
 10 22  1  0
 10 23  1  0
 11 18  1  0
 11 24  1  0
 11 25  1  0
 12 19  1  0
 12 26  1  6
 13 15  1  0
 13 27  1  0
 14 16  2  0
 14 28  1  0
 15 29  1  0
 16 30  1  0
 17 31  1  0
 17 32  1  0
 18 33  1  0
 18 34  1  0
M  END
> <Name>
460612

> <PUBCHEM_COMPOUND_CID>
460612

> <Toxicity>
1

> <Data Set>
TestSet

$$$$
4058
  SciTegic12242523262D

 39 40  0  0  0  0            999 V2000
    3.5000    1.2310    0.0000 O   0  0
    4.6740    2.2160    0.0000 O   0  0
    5.0000   -1.6350    0.0000 N   0  0
    5.0000    0.3650    0.0000 C   0  0
    5.8660   -0.1350    0.0000 C   0  0
    4.1340   -0.1350    0.0000 C   0  0
    5.8660   -1.1350    0.0000 C   0  0
    4.1340   -1.1350    0.0000 C   0  0
    5.7660    1.0080    0.0000 C   0  0
    4.5000    1.2310    0.0000 C   0  0
    5.0000   -2.6350    0.0000 C   0  0
    6.7060    0.6660    0.0000 C   0  0
    5.5920    1.9920    0.0000 C   0  0
    7.4720    1.3080    0.0000 C   0  0
    6.3580    2.6350    0.0000 C   0  0
    7.2980    2.2930    0.0000 C   0  0
    3.0000    2.0970    0.0000 C   0  0
    2.0000    2.0970    0.0000 C   0  0
    6.4770   -0.2430    0.0000 H   0  0
    6.0780    0.4470    0.0000 H   0  0
    3.9220    0.4470    0.0000 H   0  0
    3.5230   -0.2430    0.0000 H   0  0
    6.0780   -1.7180    0.0000 H   0  0
    6.4770   -1.0280    0.0000 H   0  0
    3.5230   -1.0280    0.0000 H   0  0
    3.9220   -1.7180    0.0000 H   0  0
    4.3800   -2.6350    0.0000 H   0  0
    5.0000   -3.2550    0.0000 H   0  0
    5.6200   -2.6350    0.0000 H   0  0
    6.8130    0.0550    0.0000 H   0  0
    5.0100    2.2040    0.0000 H   0  0
    8.0540    1.0960    0.0000 H   0  0
    6.2510    3.2460    0.0000 H   0  0
    7.7730    2.6920    0.0000 H   0  0
    3.5830    2.3090    0.0000 H   0  0
    2.8920    2.7070    0.0000 H   0  0
    2.0000    2.7170    0.0000 H   0  0
    1.3800    2.0970    0.0000 H   0  0
    2.0000    1.4770    0.0000 H   0  0
  1 10  1  0
  1 17  1  0
  2 10  2  0
  3  7  1  0
  3  8  1  0
  3 11  1  0
  4  5  1  0
  4  6  1  0
  4  9  1  0
  4 10  1  0
  5  7  1  0
  5 19  1  0
  5 20  1  0
  6  8  1  0
  6 21  1  0
  6 22  1  0
  7 23  1  0
  7 24  1  0
  8 25  1  0
  8 26  1  0
  9 12  2  0
  9 13  1  0
 11 27  1  0
 11 28  1  0
 11 29  1  0
 12 14  1  0
 12 30  1  0
 13 15  2  0
 13 31  1  0
 14 16  2  0
 14 32  1  0
 15 16  1  0
 15 33  1  0
 16 34  1  0
 17 18  1  0
 17 35  1  0
 17 36  1  0
 18 37  1  0
 18 38  1  0
 18 39  1  0
M  END
> <Name>
4058

> <PUBCHEM_COMPOUND_CID>
4058

> <Toxicity>
1

> <Data Set>
TrainingSet

$$$$
522325
  SciTegic12242523262D

 37 38  0  0  0  0            999 V2000
    5.0290    2.6740    0.0000 S   0  0
    5.5200   -1.1180    0.0000 O   0  0
    5.6170    3.4830    0.0000 O   0  0
    4.2200    3.2620    0.0000 O   0  0
    5.8380    2.0860    0.0000 O   0  5
    2.9510   -0.8090    0.0000 N   0  0
    3.7600   -1.3960    0.0000 N   0  0
    4.8480    0.9510    0.0000 N   0  0
    4.2600    0.1420    0.0000 C   0  0
    3.2600    0.1420    0.0000 C   0  0
    4.5690   -0.8090    0.0000 C   0  0
    4.4410    1.8650    0.0000 C   0  0
    3.7600   -2.3960    0.0000 C   0  0
    2.6720    0.9510    0.0000 C   0  0
    2.0000   -1.1180    0.0000 C   0  0
    5.8420    0.8470    0.0000 C   0  0
    2.8940   -2.8960    0.0000 C   0  0
    4.6260   -2.8960    0.0000 C   0  0
    2.8940   -3.8960    0.0000 C   0  0
    4.6260   -3.8960    0.0000 C   0  0
    3.7600   -4.3960    0.0000 C   0  0
    4.0100    2.3110    0.0000 H   0  0
    3.9270    1.5180    0.0000 H   0  0
    3.1740    1.3160    0.0000 H   0  0
    2.3080    1.4530    0.0000 H   0  0
    2.1710    0.5870    0.0000 H   0  0
    1.8080   -0.5280    0.0000 H   0  0
    1.4100   -1.3090    0.0000 H   0  0
    2.1920   -1.7070    0.0000 H   0  0
    5.7780    0.2300    0.0000 H   0  0
    6.4590    0.7820    0.0000 H   0  0
    5.9070    1.4630    0.0000 H   0  0
    2.3570   -2.5860    0.0000 H   0  0
    5.1630   -2.5860    0.0000 H   0  0
    2.3570   -4.2060    0.0000 H   0  0
    5.1630   -4.2060    0.0000 H   0  0
    3.7600   -5.0160    0.0000 H   0  0
  1  3  2  0
  1  4  2  0
  1  5  1  0
  1 12  1  0
  2 11  2  0
  6  7  1  0
  6 10  1  0
  6 15  1  0
  7 11  1  0
  7 13  1  0
  8  9  1  0
  8 12  1  0
  8 16  1  0
  9 10  2  0
  9 11  1  0
 10 14  1  0
 12 22  1  0
 12 23  1  0
 13 17  2  0
 13 18  1  0
 14 24  1  0
 14 25  1  0
 14 26  1  0
 15 27  1  0
 15 28  1  0
 15 29  1  0
 16 30  1  0
 16 31  1  0
 16 32  1  0
 17 19  1  0
 17 33  1  0
 18 20  2  0
 18 34  1  0
 19 21  2  0
 19 35  1  0
 20 21  1  0
 20 36  1  0
 21 37  1  0
M  CHG  1   5  -1
M  END
> <Name>
522325

> <PUBCHEM_COMPOUND_CID>
522325

> <Toxicity>
1

> <Data Set>
TrainingSet

$$$$
4091
  SciTegic12242523262D

 20 19  0  0  0  0            999 V2000
    6.0010    0.4050    0.0000 N   0  0
    4.2690    0.4050    0.0000 N   0  0
    5.1350   -1.0950    0.0000 N   0  0
    2.5370    0.4050    0.0000 N   0  0
    3.4030   -1.0950    0.0000 N   0  0
    6.8670   -0.0950    0.0000 C   0  0
    6.0010    1.4050    0.0000 C   0  0
    5.1350   -0.0950    0.0000 C   0  0
    3.4030   -0.0950    0.0000 C   0  0
    6.5570   -0.6320    0.0000 H   0  0
    7.4040   -0.4050    0.0000 H   0  0
    7.1770    0.4420    0.0000 H   0  0
    6.6210    1.4050    0.0000 H   0  0
    6.0010    2.0250    0.0000 H   0  0
    5.3810    1.4050    0.0000 H   0  0
    5.6720   -1.4050    0.0000 H   0  0
    2.0000    0.0950    0.0000 H   0  0
    2.5370    1.0250    0.0000 H   0  0
    2.8660   -1.4050    0.0000 H   0  0
    3.9400   -1.4050    0.0000 H   0  0
  1  6  1  0
  1  7  1  0
  1  8  1  0
  2  8  1  0
  2  9  2  0
  3  8  2  0
  3 16  1  0
  4  9  1  0
  4 17  1  0
  4 18  1  0
  5  9  1  0
  5 19  1  0
  5 20  1  0
  6 10  1  0
  6 11  1  0
  6 12  1  0
  7 13  1  0
  7 14  1  0
  7 15  1  0
M  END
> <Name>
4091

> <PUBCHEM_COMPOUND_CID>
4091

> <Toxicity>
0

> <Data Set>
TestSet

$$$$
4095
  SciTegic12242523262D

 50 51  0  0  1  0            999 V2000
    7.1450    0.8660    0.0000 O   0  0
    2.9400   -0.3010    0.0000 N   0  0
    5.6450    0.0000    0.0000 C   0  0
    4.6450    0.0000    0.0000 C   0  0
    3.7060    0.3420    0.0000 C   0  0
    5.6450   -1.0000    0.0000 C   0  0
    5.6450    1.0000    0.0000 C   0  0
    6.6450    0.0000    0.0000 C   0  0
    3.5320    1.3270    0.0000 C   0  0
    7.1450   -0.8660    0.0000 C   0  0
    4.7790   -1.5000    0.0000 C   0  0
    6.5120    1.5000    0.0000 C   0  0
    6.5120   -1.5000    0.0000 C   0  0
    4.7790    1.5000    0.0000 C   0  0
    2.0000    0.0410    0.0000 C   0  0
    3.1130   -1.2860    0.0000 C   0  0
    8.1450   -0.8660    0.0000 C   0  0
    4.7790   -2.5000    0.0000 C   0  0
    6.5120    2.5000    0.0000 C   0  0
    6.5120   -2.5000    0.0000 C   0  0
    4.7790    2.5000    0.0000 C   0  0
    5.6450   -3.0000    0.0000 C   0  0
    5.6450    3.0000    0.0000 C   0  0
    4.2200   -0.4510    0.0000 H   0  0
    4.7530    0.6110    0.0000 H   0  0
    3.1230    0.5540    0.0000 H   0  0
    4.1430    1.4340    0.0000 H   0  0
    3.4240    1.9370    0.0000 H   0  0
    2.9220    1.2190    0.0000 H   0  0
    6.5630   -1.0780    0.0000 H   0  0
    7.2530   -1.4770    0.0000 H   0  0
    4.2420   -1.1900    0.0000 H   0  0
    7.0480    1.1900    0.0000 H   0  0
    7.0480   -1.1900    0.0000 H   0  0
    4.2420    1.1900    0.0000 H   0  0
    2.2120    0.6240    0.0000 H   0  0
    1.4170    0.2530    0.0000 H   0  0
    1.7880   -0.5410    0.0000 H   0  0
    2.5030   -1.3930    0.0000 H   0  0
    3.2210   -1.8960    0.0000 H   0  0
    3.7240   -1.1780    0.0000 H   0  0
    8.1450   -1.4860    0.0000 H   0  0
    8.7650   -0.8660    0.0000 H   0  0
    8.1450   -0.2460    0.0000 H   0  0
    4.2420   -2.8100    0.0000 H   0  0
    7.0480    2.8100    0.0000 H   0  0
    7.0480   -2.8100    0.0000 H   0  0
    4.2420    2.8100    0.0000 H   0  0
    5.6450   -3.6200    0.0000 H   0  0
    5.6450    3.6200    0.0000 H   0  0
  1  8  2  0
  2  5  1  0
  2 15  1  0
  2 16  1  0
  3  4  1  0
  3  6  1  0
  3  7  1  0
  3  8  1  0
  4  5  1  0
  4 24  1  0
  4 25  1  0
  5  9  1  0
  5 26  1  0
  6 11  2  0
  6 13  1  0
  7 12  2  0
  7 14  1  0
  8 10  1  0
  9 27  1  0
  9 28  1  0
  9 29  1  0
 10 17  1  0
 10 30  1  0
 10 31  1  0
 11 18  1  0
 11 32  1  0
 12 19  1  0
 12 33  1  0
 13 20  2  0
 13 34  1  0
 14 21  2  0
 14 35  1  0
 15 36  1  0
 15 37  1  0
 15 38  1  0
 16 39  1  0
 16 40  1  0
 16 41  1  0
 17 42  1  0
 17 43  1  0
 17 44  1  0
 18 22  2  0
 18 45  1  0
 19 23  2  0
 19 46  1  0
 20 22  1  0
 20 47  1  0
 21 23  1  0
 21 48  1  0
 22 49  1  0
 23 50  1  0
M  END
> <Name>
4095

> <PUBCHEM_COMPOUND_CID>
4095

> <Toxicity>
0

> <Data Set>
TrainingSet

$$$$
10836
  SciTegic12242523262D

 26 26  0  0  1  0            999 V2000
    3.7320    2.0000    0.0000 N   0  0
    3.7320    1.0000    0.0000 C   0  0  2  0  0  0
    2.8660    0.5000    0.0000 C   0  0
    2.8660   -0.5000    0.0000 C   0  0
    4.5980    0.5000    0.0000 C   0  0
    2.0000   -1.0000    0.0000 C   0  0
    3.7320   -1.0000    0.0000 C   0  0
    4.5980    2.5000    0.0000 C   0  0
    2.0000   -2.0000    0.0000 C   0  0
    3.7320   -2.0000    0.0000 C   0  0
    2.8660   -2.5000    0.0000 C   0  0
    4.2690    1.3100    0.0000 H   0  0
    2.6540    1.0830    0.0000 H   0  0
    2.2550    0.3920    0.0000 H   0  0
    4.2880   -0.0370    0.0000 H   0  0
    5.1350    0.1900    0.0000 H   0  0
    4.9080    1.0370    0.0000 H   0  0
    3.1950    2.3100    0.0000 H   0  0
    1.4630   -0.6900    0.0000 H   0  0
    4.2690   -0.6900    0.0000 H   0  0
    4.9080    1.9630    0.0000 H   0  0
    5.1350    2.8100    0.0000 H   0  0
    4.2880    3.0370    0.0000 H   0  0
    1.4630   -2.3100    0.0000 H   0  0
    4.2690   -2.3100    0.0000 H   0  0
    2.8660   -3.1200    0.0000 H   0  0
  1  2  1  0
  1  8  1  0
  1 18  1  0
  2  3  1  0
  2  5  1  1
  2 12  1  6
  3  4  1  0
  3 13  1  0
  3 14  1  0
  4  6  2  0
  4  7  1  0
  5 15  1  0
  5 16  1  0
  5 17  1  0
  6  9  1  0
  6 19  1  0
  7 10  2  0
  7 20  1  0
  8 21  1  0
  8 22  1  0
  8 23  1  0
  9 11  2  0
  9 24  1  0
 10 11  1  0
 10 25  1  0
 11 26  1  0
M  END
> <Name>
10836

> <PUBCHEM_COMPOUND_CID>
10836

> <Toxicity>
1

> <Data Set>
TestSet

$$$$
1349907
  SciTegic12242523262D

 13 13  0  0  0  0            999 V2000
    4.5690   -0.2410    0.0000 S   0  0
    2.8090   -0.5200    0.0000 N   0  0
    3.3090    1.0190    0.0000 N   0  0
    3.6180    0.0680    0.0000 C   0  0
    2.0000    0.0680    0.0000 C   0  0
    2.8090   -1.5200    0.0000 C   0  0
    2.3090    1.0190    0.0000 C   0  0
    1.4100   -0.1240    0.0000 H   0  0
    2.1890   -1.5200    0.0000 H   0  0
    2.8090   -2.1400    0.0000 H   0  0
    3.4290   -1.5200    0.0000 H   0  0
    3.6730    1.5200    0.0000 H   0  0
    1.9450    1.5200    0.0000 H   0  0
  1  4  2  0
  2  4  1  0
  2  5  1  0
  2  6  1  0
  3  4  1  0
  3  7  1  0
  3 12  1  0
  5  7  2  0
  5  8  1  0
  6  9  1  0
  6 10  1  0
  6 11  1  0
  7 13  1  0
M  END
> <Name>
1349907

> <PUBCHEM_COMPOUND_CID>
1349907

> <Toxicity>
0

> <Data Set>
TrainingSet

$$$$
126941
  SciTegic12242523262D

 55 57  0  0  1  0            999 V2000
   15.5880   -0.2770    0.0000 O   0  0
   12.1200   -1.2640    0.0000 O   0  0
   14.7270    1.2260    0.0000 O   0  0
   15.5760   -3.2770    0.0000 O   0  0
   13.8440   -3.2700    0.0000 O   0  0
    8.6670    1.7500    0.0000 N   0  0
   12.9910    0.2330    0.0000 N   0  0
    6.0290    1.2420    0.0000 N   0  0
    6.0290    3.3120    0.0000 N   0  0
    4.2690    3.2770    0.0000 N   0  0
    3.4030    1.7770    0.0000 N   0  0
    4.2690    0.2770    0.0000 N   0  0
    2.5370    3.2770    0.0000 N   0  0
   13.8560   -0.2700    0.0000 C   0  0  1  0  0  0
   13.8520   -1.2700    0.0000 C   0  0
    9.5310    1.2460    0.0000 C   0  0
   14.7160   -1.7740    0.0000 C   0  0
    7.7990    1.2530    0.0000 C   0  0
   11.2590    0.2400    0.0000 C   0  0
   12.1230   -0.2640    0.0000 C   0  0
    9.5270    0.2460    0.0000 C   0  0
   10.3990    1.7430    0.0000 C   0  0
   14.7230    0.2260    0.0000 C   0  0
   10.3910   -0.2570    0.0000 C   0  0
   11.2630    1.2400    0.0000 C   0  0
    6.9350    1.7560    0.0000 C   0  0
    8.6710    2.7500    0.0000 C   0  0
   14.7120   -2.7740    0.0000 C   0  0
    6.9350    2.7980    0.0000 C   0  0
    5.1350    1.7770    0.0000 C   0  0
    5.1350    2.7770    0.0000 C   0  0
    4.2690    1.2770    0.0000 C   0  0
    3.4030    2.7770    0.0000 C   0  0
   13.8580    0.3500    0.0000 H   0  0
   13.2410   -1.1600    0.0000 H   0  0
   13.6370   -1.8520    0.0000 H   0  0
   15.3260   -1.8840    0.0000 H   0  0
   14.9300   -1.1920    0.0000 H   0  0
   12.9940    0.8530    0.0000 H   0  0
    7.3990    0.7800    0.0000 H   0  0
    8.1960    0.7760    0.0000 H   0  0
    8.9890   -0.0620    0.0000 H   0  0
   10.4020    2.3630    0.0000 H   0  0
   10.3890   -0.8770    0.0000 H   0  0
   11.8010    1.5480    0.0000 H   0  0
    9.2910    2.7470    0.0000 H   0  0
    8.6730    3.3700    0.0000 H   0  0
    8.0510    2.7520    0.0000 H   0  0
    7.4710    3.1100    0.0000 H   0  0
   16.1260    0.0310    0.0000 H   0  0
   15.5740   -3.8970    0.0000 H   0  0
    3.7320   -0.0330    0.0000 H   0  0
    4.8060   -0.0330    0.0000 H   0  0
    2.5370    3.8970    0.0000 H   0  0
    2.0000    2.9670    0.0000 H   0  0
  1 23  1  0
  1 50  1  0
  2 20  2  0
  3 23  2  0
  4 28  1  0
  4 51  1  0
  5 28  2  0
  6 16  1  0
  6 18  1  0
  6 27  1  0
  7 14  1  0
  7 20  1  0
  7 39  1  0
  8 26  2  0
  8 30  1  0
  9 29  2  0
  9 31  1  0
 10 31  1  0
 10 33  2  0
 11 32  2  0
 11 33  1  0
 12 32  1  0
 12 52  1  0
 12 53  1  0
 13 33  1  0
 13 54  1  0
 13 55  1  0
 14 15  1  0
 14 23  1  6
 14 34  1  1
 15 17  1  0
 15 35  1  0
 15 36  1  0
 16 21  2  0
 16 22  1  0
 17 28  1  0
 17 37  1  0
 17 38  1  0
 18 26  1  0
 18 40  1  0
 18 41  1  0
 19 20  1  0
 19 24  2  0
 19 25  1  0
 21 24  1  0
 21 42  1  0
 22 25  2  0
 22 43  1  0
 24 44  1  0
 25 45  1  0
 26 29  1  0
 27 46  1  0
 27 47  1  0
 27 48  1  0
 29 49  1  0
 30 31  2  0
 30 32  1  0
M  END
> <Name>
126941

> <PUBCHEM_COMPOUND_CID>
126941

> <Toxicity>
1

> <Data Set>
TrainingSet

$$$$
38853
  SciTegic12242523262D

 28 28  0  0  1  0            999 V2000
    6.0010    3.0000    0.0000 O   0  0
    6.8670    1.5000    0.0000 O   0  0
    2.5370   -2.0000    0.0000 O   0  0
    4.2690   -3.0000    0.0000 O   0  0
    4.6350    2.3660    0.0000 N   0  0
    5.1350    1.5000    0.0000 C   0  0  2  0  0  0
    4.2690    1.0000    0.0000 C   0  0
    4.2690    0.0000    0.0000 C   0  0
    5.6350    0.6340    0.0000 C   0  0
    6.0010    2.0000    0.0000 C   0  0
    3.4030   -0.5000    0.0000 C   0  0
    5.1350   -0.5000    0.0000 C   0  0
    3.4030   -1.5000    0.0000 C   0  0
    5.1350   -1.5000    0.0000 C   0  0
    4.2690   -2.0000    0.0000 C   0  0
    4.0570    1.5830    0.0000 H   0  0
    3.6580    0.8920    0.0000 H   0  0
    5.0980    0.3240    0.0000 H   0  0
    5.9450    0.0970    0.0000 H   0  0
    6.1720    0.9440    0.0000 H   0  0
    4.0150    2.3660    0.0000 H   0  0
    4.9450    2.9030    0.0000 H   0  0
    2.8660   -0.1900    0.0000 H   0  0
    5.6720   -0.1900    0.0000 H   0  0
    5.6720   -1.8100    0.0000 H   0  0
    6.5380    3.3100    0.0000 H   0  0
    2.0000   -1.6900    0.0000 H   0  0
    4.8060   -3.3100    0.0000 H   0  0
  1 10  1  0
  1 26  1  0
  2 10  2  0
  3 13  1  0
  3 27  1  0
  4 15  1  0
  4 28  1  0
  6  5  1  1
  5 21  1  0
  5 22  1  0
  6  7  1  0
  6  9  1  0
  6 10  1  6
  7  8  1  0
  7 16  1  0
  7 17  1  0
  8 11  2  0
  8 12  1  0
  9 18  1  0
  9 19  1  0
  9 20  1  0
 11 13  1  0
 11 23  1  0
 12 14  2  0
 12 24  1  0
 13 15  2  0
 14 15  1  0
 14 25  1  0
M  END
> <Name>
38853

> <PUBCHEM_COMPOUND_CID>
38853

> <Toxicity>
0

> <Data Set>
TrainingSet

$$$$
6099
  SciTegic12242523262D

 38 40  0  0  0  0            999 V2000
    4.9360    5.2020    0.0000 S   0  0
    8.4660    5.2260    0.0000 N   0  3
    1.4060    5.2260    0.0000 N   0  0
    4.9360    3.2020    0.0000 N   0  0
    5.8020    4.7020    0.0000 C   0  0
    4.0700    4.7020    0.0000 C   0  0
    5.8020    3.7020    0.0000 C   0  0
    4.0700    3.7020    0.0000 C   0  0
    7.6020    4.7230    0.0000 C   0  0
    2.2700    4.7230    0.0000 C   0  0
    6.6960    5.2370    0.0000 C   0  0
    3.1760    5.2370    0.0000 C   0  0
    6.6960    3.1670    0.0000 C   0  0
    3.1760    3.1670    0.0000 C   0  0
    7.6020    3.6810    0.0000 C   0  0
    2.2700    3.6810    0.0000 C   0  0
    9.3340    4.7290    0.0000 C   0  0
    8.4620    6.2260    0.0000 C   0  0
    0.5380    4.7290    0.0000 C   0  0
    1.4100    6.2260    0.0000 C   0  0
    6.6890    5.8570    0.0000 H   0  0
    3.1830    5.8570    0.0000 H   0  0
    6.6890    2.5470    0.0000 H   0  0
    3.1830    2.5470    0.0000 H   0  0
    8.1380    3.3690    0.0000 H   0  0
    1.7340    3.3690    0.0000 H   0  0
    9.0260    4.1910    0.0000 H   0  0
    9.8720    4.4220    0.0000 H   0  0
    9.6420    5.2680    0.0000 H   0  0
    9.0820    6.2280    0.0000 H   0  0
    8.4600    6.8460    0.0000 H   0  0
    7.8420    6.2240    0.0000 H   0  0
    0.2300    5.2680    0.0000 H   0  0
    0.0000    4.4220    0.0000 H   0  0
    0.8460    4.1910    0.0000 H   0  0
    2.0300    6.2240    0.0000 H   0  0
    1.4120    6.8460    0.0000 H   0  0
    0.7900    6.2280    0.0000 H   0  0
  1  5  1  0
  1  6  1  0
  2  9  2  0
  2 17  1  0
  2 18  1  0
  3 10  1  0
  3 19  1  0
  3 20  1  0
  4  7  2  0
  4  8  1  0
  5  7  1  0
  5 11  2  0
  6  8  1  0
  6 12  2  0
  7 13  1  0
  8 14  2  0
  9 11  1  0
  9 15  1  0
 10 12  1  0
 10 16  2  0
 11 21  1  0
 12 22  1  0
 13 15  2  0
 13 23  1  0
 14 16  1  0
 14 24  1  0
 15 25  1  0
 16 26  1  0
 17 27  1  0
 17 28  1  0
 17 29  1  0
 18 30  1  0
 18 31  1  0
 18 32  1  0
 19 33  1  0
 19 34  1  0
 19 35  1  0
 20 36  1  0
 20 37  1  0
 20 38  1  0
M  CHG  1   2   1
M  END
> <Name>
6099

> <PUBCHEM_COMPOUND_CID>
6099

> <Toxicity>
1

> <Data Set>
TrainingSet

$$$$
8226
  SciTegic12242523262D

 50 53  0  0  1  0            999 V2000
    3.7400    0.3120    0.0000 O   0  0
    2.8600    3.8090    0.0000 O   0  0
    7.2720    0.3120    0.0000 N   0  0
    8.2600   -3.8780    0.0000 N   0  0
    4.6000    1.8150    0.0000 N   0  0
    7.2560   -0.7300    0.0000 C   0  0  1  0  0  0
    6.3900   -1.2300    0.0000 C   0  0
    8.1220   -1.2300    0.0000 C   0  0
    5.4720    0.3190    0.0000 C   0  0  1  0  0  0
    6.3740    0.8390    0.0000 C   0  0
    8.1220   -2.2300    0.0000 C   0  0
    6.3900   -2.2300    0.0000 C   0  0
    7.2560   -2.7300    0.0000 C   0  0
    5.4800   -0.7230    0.0000 C   0  0
    7.2720   -3.7710    0.0000 C   0  0
    8.1440    0.8020    0.0000 C   0  0
    4.6040    0.8150    0.0000 C   0  0
    8.7400   -3.0080    0.0000 C   0  0
    5.4800   -2.7370    0.0000 C   0  0
    6.3740   -4.2990    0.0000 C   0  0
    5.4720   -3.7780    0.0000 C   0  0
    3.7320    2.3120    0.0000 C   0  0  1  0  0  0
    2.8680    1.8090    0.0000 C   0  0
    3.7280    3.3120    0.0000 C   0  0
    2.0000    2.3050    0.0000 C   0  0
    7.9950   -0.3100    0.0000 H   0  0
    8.7320   -1.3380    0.0000 H   0  0
    8.3340   -0.6470    0.0000 H   0  0
    5.4710    0.9390    0.0000 H   0  0
    6.7750    1.3120    0.0000 H   0  0
    5.9770    1.3150    0.0000 H   0  0
    4.9460   -1.0390    0.0000 H   0  0
    8.4470    0.2610    0.0000 H   0  0
    8.6840    1.1050    0.0000 H   0  0
    7.8400    1.3420    0.0000 H   0  0
    9.3580   -2.9560    0.0000 H   0  0
    4.9460   -2.4200    0.0000 H   0  0
    8.5460   -4.4290    0.0000 H   0  0
    6.3760   -4.9190    0.0000 H   0  0
    5.1360    2.1270    0.0000 H   0  0
    4.9340   -4.0860    0.0000 H   0  0
    4.2680    2.6240    0.0000 H   0  0
    2.4710    1.3320    0.0000 H   0  0
    3.2680    1.3350    0.0000 H   0  0
    4.3390    3.2070    0.0000 H   0  0
    3.9380    3.8950    0.0000 H   0  0
    2.3080    2.8430    0.0000 H   0  0
    1.4620    2.6130    0.0000 H   0  0
    1.6920    1.7670    0.0000 H   0  0
    2.8580    4.4290    0.0000 H   0  0
  1 17  2  0
  2 24  1  0
  2 50  1  0
  3  6  1  0
  3 10  1  0
  3 16  1  0
  4 15  1  0
  4 18  1  0
  4 38  1  0
  5 17  1  0
 22  5  1  1
  5 40  1  0
  6  7  1  0
  6  8  1  0
  6 26  1  1
  7 12  1  0
  7 14  2  0
  8 11  1  0
  8 27  1  0
  8 28  1  0
  9 10  1  0
  9 14  1  0
  9 17  1  1
  9 29  1  6
 10 30  1  0
 10 31  1  0
 11 13  1  0
 11 18  2  0
 12 13  2  0
 12 19  1  0
 13 15  1  0
 14 32  1  0
 15 20  2  0
 16 33  1  0
 16 34  1  0
 16 35  1  0
 18 36  1  0
 19 21  2  0
 19 37  1  0
 20 21  1  0
 20 39  1  0
 21 41  1  0
 22 23  1  0
 22 24  1  0
 22 42  1  6
 23 25  1  0
 23 43  1  0
 23 44  1  0
 24 45  1  0
 24 46  1  0
 25 47  1  0
 25 48  1  0
 25 49  1  0
M  END
> <Name>
8226

> <PUBCHEM_COMPOUND_CID>
8226

> <Toxicity>
0

> <Data Set>
TrainingSet

$$$$
4158
  SciTegic12242523262D

 36 37  0  0  1  0            999 V2000
    3.7320   -1.2500    0.0000 O   0  0
    5.4640   -1.2500    0.0000 O   0  0
    6.3300    0.2500    0.0000 N   0  0
    5.4640    0.7500    0.0000 C   0  0
    5.4640    1.7500    0.0000 C   0  0
    4.5980    0.2500    0.0000 C   0  0
    6.3300    2.2500    0.0000 C   0  0
    7.1960    1.7500    0.0000 C   0  0
    7.1960    0.7500    0.0000 C   0  0
    3.7320    0.7500    0.0000 C   0  0
    4.5980   -0.7500    0.0000 C   0  0
    2.8660    0.2500    0.0000 C   0  0
    3.7320    1.7500    0.0000 C   0  0
    2.0000    0.7500    0.0000 C   0  0
    2.8660    2.2500    0.0000 C   0  0
    2.0000    1.7500    0.0000 C   0  0
    3.7320   -2.2500    0.0000 C   0  0
    6.0010    1.0600    0.0000 H   0  0
    5.2520    2.3330    0.0000 H   0  0
    4.8540    1.6420    0.0000 H   0  0
    5.1350   -0.0600    0.0000 H   0  0
    6.7290    2.7250    0.0000 H   0  0
    5.9320    2.7250    0.0000 H   0  0
    7.8070    1.6420    0.0000 H   0  0
    7.4080    2.3330    0.0000 H   0  0
    6.3300   -0.3700    0.0000 H   0  0
    7.4080    0.1670    0.0000 H   0  0
    7.8070    0.8580    0.0000 H   0  0
    2.8660   -0.3700    0.0000 H   0  0
    4.2690    2.0600    0.0000 H   0  0
    1.4630    0.4400    0.0000 H   0  0
    2.8660    2.8700    0.0000 H   0  0
    1.4630    2.0600    0.0000 H   0  0
    3.1120   -2.2500    0.0000 H   0  0
    3.7320   -2.8700    0.0000 H   0  0
    4.3520   -2.2500    0.0000 H   0  0
  1 11  1  0
  1 17  1  0
  2 11  2  0
  3  4  1  0
  3  9  1  0
  3 26  1  0
  4  5  1  0
  4  6  1  0
  4 18  1  0
  5  7  1  0
  5 19  1  0
  5 20  1  0
  6 10  1  0
  6 11  1  0
  6 21  1  0
  7  8  1  0
  7 22  1  0
  7 23  1  0
  8  9  1  0
  8 24  1  0
  8 25  1  0
  9 27  1  0
  9 28  1  0
 10 12  2  0
 10 13  1  0
 12 14  1  0
 12 29  1  0
 13 15  2  0
 13 30  1  0
 14 16  2  0
 14 31  1  0
 15 16  1  0
 15 32  1  0
 16 33  1  0
 17 34  1  0
 17 35  1  0
 17 36  1  0
M  END
> <Name>
4158

> <PUBCHEM_COMPOUND_CID>
4158

> <Toxicity>
0

> <Data Set>
TrainingSet

$$$$
6741
  SciTegic12242523262D

 57 60  0  0  1  0            999 V2000
    8.0320    2.3480    0.0000 O   0  0
    4.7950    1.5920    0.0000 O   0  0
    9.0460    2.9780    0.0000 O   0  0
   10.8720    2.1610    0.0000 O   0  0
    2.0000   -1.9610    0.0000 O   0  0
    7.3930    1.0920    0.0000 C   0  0  1  0  0  0
    7.3930    0.0920    0.0000 C   0  0  2  0  0  0
    6.5270   -0.4080    0.0000 C   0  0  1  0  0  0
    5.6610    0.0920    0.0000 C   0  0  2  0  0  0
    8.3390    1.3960    0.0000 C   0  0  1  0  0  0
    6.5270    1.5920    0.0000 C   0  0
    5.6610    1.0920    0.0000 C   0  0  2  0  0  0
    8.3390   -0.2130    0.0000 C   0  0
    4.7510   -0.4150    0.0000 C   0  0  1  0  0  0
    8.9230    0.5920    0.0000 C   0  0
    6.5430   -1.4500    0.0000 C   0  0
    5.6450   -1.9780    0.0000 C   0  0  1  0  0  0
    7.3930    2.0920    0.0000 C   0  0
    4.7430   -1.4570    0.0000 C   0  0
    9.1490    1.9830    0.0000 C   0  0
    4.7590    0.5850    0.0000 C   0  0
    3.8240    0.1490    0.0000 C   0  0
    5.6490   -2.9780    0.0000 C   0  0
    3.8080   -2.0060    0.0000 C   0  0
   10.0620    1.5740    0.0000 C   0  0
    2.8760   -0.3790    0.0000 C   0  0
    2.8680   -1.4640    0.0000 C   0  0
    7.4830   -0.7540    0.0000 H   0  0
    7.2660   -0.8280    0.0000 H   0  0
    6.3970    0.5170    0.0000 H   0  0
    6.9260    2.0670    0.0000 H   0  0
    6.1280    2.0670    0.0000 H   0  0
    5.6610    1.7120    0.0000 H   0  0
    8.0880   -0.7800    0.0000 H   0  0
    8.8770   -0.5220    0.0000 H   0  0
    9.3840    0.1770    0.0000 H   0  0
    9.3840    1.0060    0.0000 H   0  0
    6.7610   -2.0300    0.0000 H   0  0
    7.1520   -1.3340    0.0000 H   0  0
    5.1090   -2.2890    0.0000 H   0  0
    8.0130    2.0920    0.0000 H   0  0
    7.3930    2.7120    0.0000 H   0  0
    6.7730    2.0920    0.0000 H   0  0
    5.3790    0.5800    0.0000 H   0  0
    4.7640    1.2050    0.0000 H   0  0
    4.1390    0.5900    0.0000 H   0  0
    3.8360    0.7690    0.0000 H   0  0
    8.4480    2.8080    0.0000 H   0  0
    4.7950    2.2120    0.0000 H   0  0
    5.0290   -2.9800    0.0000 H   0  0
    5.6510   -3.5980    0.0000 H   0  0
    6.2690   -2.9750    0.0000 H   0  0
    3.8100   -2.6260    0.0000 H   0  0
    9.7150    1.0610    0.0000 H   0  0
   10.5070    1.1430    0.0000 H   0  0
    2.3430   -0.0630    0.0000 H   0  0
   11.4380    1.9080    0.0000 H   0  0
 10  1  1  6
  1 48  1  0
 12  2  1  1
  2 49  1  0
  3 20  2  0
  4 25  1  0
  4 57  1  0
  5 27  2  0
  6  7  1  0
  6 10  1  0
  6 11  1  0
  6 18  1  1
  7  8  1  0
  7 13  1  0
  7 28  1  6
  8  9  1  0
  8 16  1  0
  8 29  1  1
  9 12  1  0
  9 14  1  0
  9 30  1  6
 10 15  1  0
 10 20  1  1
 11 12  1  0
 11 31  1  0
 11 32  1  0
 12 33  1  6
 13 15  1  0
 13 34  1  0
 13 35  1  0
 14 19  1  0
 14 21  1  1
 14 22  1  0
 15 36  1  0
 15 37  1  0
 16 17  1  0
 16 38  1  0
 16 39  1  0
 17 19  1  0
 17 23  1  6
 17 40  1  1
 18 41  1  0
 18 42  1  0
 18 43  1  0
 19 24  2  0
 20 25  1  0
 21 44  1  0
 21 45  1  0
 21 46  1  0
 22 26  2  0
 22 47  1  0
 23 50  1  0
 23 51  1  0
 23 52  1  0
 24 27  1  0
 24 53  1  0
 25 54  1  0
 25 55  1  0
 26 27  1  0
 26 56  1  0
M  END
> <Name>
6741

> <PUBCHEM_COMPOUND_CID>
6741

> <Toxicity>
0

> <Data Set>
TrainingSet

$$$$
6010
  SciTegic12242523262D

 52 55  0  0  1  0            999 V2000
    9.1490    1.8120    0.0000 O   0  0
    2.0000   -2.1310    0.0000 O   0  0
    7.3930    0.9210    0.0000 C   0  0  1  0  0  0
    7.3930   -0.0790    0.0000 C   0  0  2  0  0  0
    6.5270   -0.5790    0.0000 C   0  0  1  0  0  0
    5.6610   -0.0790    0.0000 C   0  0  1  0  0  0
    8.3390    1.2260    0.0000 C   0  0  2  0  0  0
    6.5270    1.4210    0.0000 C   0  0
    4.7510   -0.5860    0.0000 C   0  0  2  0  0  0
    8.3390   -0.3840    0.0000 C   0  0
    5.6610    0.9210    0.0000 C   0  0
    8.9230    0.4210    0.0000 C   0  0
    6.5430   -1.6210    0.0000 C   0  0
    7.3930    1.9210    0.0000 C   0  0
    4.7430   -1.6280    0.0000 C   0  0
    5.6450   -2.1480    0.0000 C   0  0
    3.8240   -0.0220    0.0000 C   0  0
    8.0320    2.1770    0.0000 C   0  0
    4.7590    0.4140    0.0000 C   0  0
    2.8760   -0.5500    0.0000 C   0  0
    3.8080   -2.1770    0.0000 C   0  0
    2.8680   -1.6350    0.0000 C   0  0
    7.4830   -0.9240    0.0000 H   0  0
    7.2660   -0.9980    0.0000 H   0  0
    6.3970    0.3460    0.0000 H   0  0
    6.9260    1.8960    0.0000 H   0  0
    6.1280    1.8960    0.0000 H   0  0
    8.0880   -0.9510    0.0000 H   0  0
    8.8770   -0.6930    0.0000 H   0  0
    5.4490    1.5040    0.0000 H   0  0
    5.0500    0.8130    0.0000 H   0  0
    9.3840    0.0060    0.0000 H   0  0
    9.3840    0.8360    0.0000 H   0  0
    6.7610   -2.2010    0.0000 H   0  0
    7.1520   -1.5050    0.0000 H   0  0
    8.0130    1.9210    0.0000 H   0  0
    7.3930    2.5410    0.0000 H   0  0
    6.7730    1.9210    0.0000 H   0  0
    5.2480   -2.6240    0.0000 H   0  0
    6.0460   -2.6210    0.0000 H   0  0
    4.2320    0.4450    0.0000 H   0  0
    3.4340    0.4600    0.0000 H   0  0
    8.6220    2.3680    0.0000 H   0  0
    7.8410    2.7670    0.0000 H   0  0
    7.4420    1.9870    0.0000 H   0  0
    5.3790    0.4090    0.0000 H   0  0
    4.7640    1.0340    0.0000 H   0  0
    4.1390    0.4190    0.0000 H   0  0
    9.7150    1.5590    0.0000 H   0  0
    2.6720    0.0360    0.0000 H   0  0
    2.2650   -0.6510    0.0000 H   0  0
    3.8100   -2.7970    0.0000 H   0  0
  7  1  1  1
  1 49  1  0
  2 22  2  0
  3  4  1  0
  3  7  1  0
  3  8  1  0
  3 14  1  1
  4  5  1  0
  4 10  1  0
  4 23  1  6
  5  6  1  0
  5 13  1  0
  5 24  1  1
  6  9  1  0
  6 11  1  0
  6 25  1  6
  7 12  1  0
  7 18  1  6
  8 11  1  0
  8 26  1  0
  8 27  1  0
  9 15  1  0
  9 17  1  0
  9 19  1  1
 10 12  1  0
 10 28  1  0
 10 29  1  0
 11 30  1  0
 11 31  1  0
 12 32  1  0
 12 33  1  0
 13 16  1  0
 13 34  1  0
 13 35  1  0
 14 36  1  0
 14 37  1  0
 14 38  1  0
 15 16  1  0
 15 21  2  0
 16 39  1  0
 16 40  1  0
 17 20  1  0
 17 41  1  0
 17 42  1  0
 18 43  1  0
 18 44  1  0
 18 45  1  0
 19 46  1  0
 19 47  1  0
 19 48  1  0
 20 22  1  0
 20 50  1  0
 20 51  1  0
 21 22  1  0
 21 52  1  0
M  END
> <Name>
6010

> <PUBCHEM_COMPOUND_CID>
6010

> <Toxicity>
1

> <Data Set>
TrainingSet

$$$$
4168
  SciTegic12242523262D

 42 42  0  0  0  0            999 V2000
    6.3300   -3.0950    0.0000 Cl  0  0
    2.8660   -1.0950    0.0000 O   0  0
    3.7320    0.4050    0.0000 O   0  0
    6.3300    2.9050    0.0000 N   0  0
    5.4640    0.4050    0.0000 N   0  0
    4.5980   -4.0950    0.0000 N   0  0
    6.3300    1.9050    0.0000 C   0  0
    7.1960    3.4050    0.0000 C   0  0
    5.4640    3.4050    0.0000 C   0  0
    5.4640    1.4050    0.0000 C   0  0
    7.1960    4.4050    0.0000 C   0  0
    5.4640    4.4050    0.0000 C   0  0
    4.5980   -0.0950    0.0000 C   0  0
    4.5980   -1.0950    0.0000 C   0  0
    3.7320   -1.5950    0.0000 C   0  0
    5.4640   -1.5950    0.0000 C   0  0
    3.7320   -2.5950    0.0000 C   0  0
    4.5980   -3.0950    0.0000 C   0  0
    5.4640   -2.5950    0.0000 C   0  0
    2.0000   -1.5950    0.0000 C   0  0
    6.5420    1.3220    0.0000 H   0  0
    6.9410    2.0130    0.0000 H   0  0
    5.2520    1.9880    0.0000 H   0  0
    4.8540    1.2970    0.0000 H   0  0
    7.4080    2.8220    0.0000 H   0  0
    7.8070    3.5130    0.0000 H   0  0
    4.8540    3.5130    0.0000 H   0  0
    5.2520    2.8220    0.0000 H   0  0
    6.0010    0.0950    0.0000 H   0  0
    7.8160    4.4050    0.0000 H   0  0
    7.1960    5.0250    0.0000 H   0  0
    6.5760    4.4050    0.0000 H   0  0
    6.0840    4.4050    0.0000 H   0  0
    5.4640    5.0250    0.0000 H   0  0
    4.8440    4.4050    0.0000 H   0  0
    6.0010   -1.2850    0.0000 H   0  0
    3.1950   -2.9050    0.0000 H   0  0
    4.0610   -4.4050    0.0000 H   0  0
    5.1350   -4.4050    0.0000 H   0  0
    1.6900   -1.0580    0.0000 H   0  0
    1.4630   -1.9050    0.0000 H   0  0
    2.3100   -2.1320    0.0000 H   0  0
  1 19  1  0
  2 15  1  0
  2 20  1  0
  3 13  2  0
  4  7  1  0
  4  8  1  0
  4  9  1  0
  5 10  1  0
  5 13  1  0
  5 29  1  0
  6 18  1  0
  6 38  1  0
  6 39  1  0
  7 10  1  0
  7 21  1  0
  7 22  1  0
  8 11  1  0
  8 25  1  0
  8 26  1  0
  9 12  1  0
  9 27  1  0
  9 28  1  0
 10 23  1  0
 10 24  1  0
 11 30  1  0
 11 31  1  0
 11 32  1  0
 12 33  1  0
 12 34  1  0
 12 35  1  0
 13 14  1  0
 14 15  2  0
 14 16  1  0
 15 17  1  0
 16 19  2  0
 16 36  1  0
 17 18  2  0
 17 37  1  0
 18 19  1  0
 20 40  1  0
 20 41  1  0
 20 42  1  0
M  END
> <Name>
4168

> <PUBCHEM_COMPOUND_CID>
4168

> <Toxicity>
0

> <Data Set>
TrainingSet

$$$$
4171
  SciTegic12242523262D

 44 44  0  0  1  0            999 V2000
    3.7320    0.7500    0.0000 O   0  0
    3.7320    2.7500    0.0000 O   0  0
    2.8660   -4.7500    0.0000 O   0  0
    5.4640    3.7500    0.0000 N   0  0
    4.5980    2.2500    0.0000 C   0  0
    5.4640    2.7500    0.0000 C   0  0
    6.3300    4.2500    0.0000 C   0  0
    4.5980    1.2500    0.0000 C   0  0
    6.3300    5.2500    0.0000 C   0  0
    7.1960    3.7500    0.0000 C   0  0
    3.7320   -0.2500    0.0000 C   0  0
    3.7320   -2.2500    0.0000 C   0  0
    3.7320   -3.2500    0.0000 C   0  0
    2.8660   -0.7500    0.0000 C   0  0
    4.5980   -0.7500    0.0000 C   0  0
    2.8660   -1.7500    0.0000 C   0  0
    4.5980   -1.7500    0.0000 C   0  0
    2.8660   -3.7500    0.0000 C   0  0
    2.0000   -5.2500    0.0000 C   0  0
    4.5980    3.1000    0.0000 H   0  0
    5.6760    2.1670    0.0000 H   0  0
    6.0750    2.8580    0.0000 H   0  0
    5.7930    4.5600    0.0000 H   0  0
    4.9270    4.0600    0.0000 H   0  0
    4.8100    0.6670    0.0000 H   0  0
    5.2090    1.3580    0.0000 H   0  0
    6.9500    5.2500    0.0000 H   0  0
    6.3300    5.8700    0.0000 H   0  0
    5.7100    5.2500    0.0000 H   0  0
    6.8860    3.2130    0.0000 H   0  0
    7.7330    3.4400    0.0000 H   0  0
    7.5060    4.2870    0.0000 H   0  0
    3.9440   -3.8330    0.0000 H   0  0
    4.3430   -3.1420    0.0000 H   0  0
    3.7320    3.3700    0.0000 H   0  0
    2.3290   -2.0600    0.0000 H   0  0
    5.1350   -2.0600    0.0000 H   0  0
    2.3290   -0.4400    0.0000 H   0  0
    5.1350   -0.4400    0.0000 H   0  0
    2.6540   -3.1670    0.0000 H   0  0
    2.2550   -3.8580    0.0000 H   0  0
    1.6900   -4.7130    0.0000 H   0  0
    1.4630   -5.5600    0.0000 H   0  0
    2.3100   -5.7870    0.0000 H   0  0
  1  8  1  0
  1 11  1  0
  2  5  1  0
  2 35  1  0
  3 18  1  0
  3 19  1  0
  4  6  1  0
  4  7  1  0
  4 24  1  0
  5  6  1  0
  5  8  1  0
  5 20  1  0
  6 21  1  0
  6 22  1  0
  7  9  1  0
  7 10  1  0
  7 23  1  0
  8 25  1  0
  8 26  1  0
  9 27  1  0
  9 28  1  0
  9 29  1  0
 10 30  1  0
 10 31  1  0
 10 32  1  0
 11 14  2  0
 11 15  1  0
 12 13  1  0
 12 16  2  0
 12 17  1  0
 13 18  1  0
 13 33  1  0
 13 34  1  0
 14 16  1  0
 14 38  1  0
 15 17  2  0
 15 39  1  0
 16 36  1  0
 17 37  1  0
 18 40  1  0
 18 41  1  0
 19 42  1  0
 19 43  1  0
 19 44  1  0
M  END
> <Name>
4171

> <PUBCHEM_COMPOUND_CID>
4171

> <Toxicity>
0

> <Data Set>
TrainingSet

$$$$
443944
  SciTegic12242523262D

 54 55  0  0  1  0            999 V2000
    6.8670   -1.1550    0.0000 I   0  0
    8.5990    1.8450    0.0000 I   0  0
   10.3310   -1.1550    0.0000 I   0  0
    4.2690    2.3450    0.0000 O   0  0
    4.2690   -0.6550    0.0000 O   0  0
    2.5370    0.3450    0.0000 O   0  0
    6.0010    2.3450    0.0000 O   0  0
    2.5370    3.3450    0.0000 O   0  0
    6.8670    1.8450    0.0000 O   0  0
   10.3310   -2.1550    0.0000 O   0  0
   11.1970   -0.6550    0.0000 O   0  0
    6.0010    0.3450    0.0000 N   0  0
    8.5990   -2.1550    0.0000 N   0  0
   10.3310    0.8450    0.0000 N   0  0
    5.1350    0.8450    0.0000 C   0  0  2  0  0  0
    4.2690    0.3450    0.0000 C   0  0  2  0  0  0
    3.4030    0.8450    0.0000 C   0  0  1  0  0  0
    3.4030    1.8450    0.0000 C   0  0  1  0  0  0
    5.1350    1.8450    0.0000 C   0  0
    2.5370    2.3450    0.0000 C   0  0
    6.8670    0.8450    0.0000 C   0  0
    7.7330    0.3450    0.0000 C   0  0
    7.7330   -0.6550    0.0000 C   0  0
    8.5990    0.8450    0.0000 C   0  0
    8.5990   -1.1550    0.0000 C   0  0
    9.4650    0.3450    0.0000 C   0  0
    9.4650   -0.6550    0.0000 C   0  0
    7.7330   -2.6550    0.0000 C   0  0
    9.4650   -2.6550    0.0000 C   0  0
   11.1970    0.3450    0.0000 C   0  0
    9.4650   -3.6550    0.0000 C   0  0
   12.0630    0.8450    0.0000 C   0  0
    5.1350    0.2250    0.0000 H   0  0
    3.7320    0.0350    0.0000 H   0  0
    2.8660    1.1550    0.0000 H   0  0
    3.4030    2.4650    0.0000 H   0  0
    5.1350    2.4650    0.0000 H   0  0
    6.0010   -0.2750    0.0000 H   0  0
    1.9260    2.4530    0.0000 H   0  0
    2.3250    1.7620    0.0000 H   0  0
    3.7320   -0.9650    0.0000 H   0  0
    2.0000    0.6550    0.0000 H   0  0
    6.0010    2.9650    0.0000 H   0  0
    2.0000    3.6550    0.0000 H   0  0
   10.3310    1.4650    0.0000 H   0  0
    7.4230   -2.1180    0.0000 H   0  0
    7.1960   -2.9650    0.0000 H   0  0
    8.0430   -3.1920    0.0000 H   0  0
    8.8450   -3.6550    0.0000 H   0  0
    9.4650   -4.2750    0.0000 H   0  0
   10.0850   -3.6550    0.0000 H   0  0
   12.3730    0.3080    0.0000 H   0  0
   12.6000    1.1550    0.0000 H   0  0
   11.7530    1.3820    0.0000 H   0  0
  1 23  1  0
  2 24  1  0
  3 27  1  0
  4 18  1  0
  4 19  1  0
 16  5  1  1
  5 41  1  0
 17  6  1  6
  6 42  1  0
  7 19  1  0
  7 43  1  0
  8 20  1  0
  8 44  1  0
  9 21  2  0
 10 29  2  0
 11 30  2  0
 15 12  1  6
 12 21  1  0
 12 38  1  0
 13 25  1  0
 13 28  1  0
 13 29  1  0
 14 26  1  0
 14 30  1  0
 14 45  1  0
 15 16  1  0
 15 19  1  0
 15 33  1  1
 16 17  1  0
 16 34  1  6
 17 18  1  0
 17 35  1  1
 18 20  1  1
 18 36  1  6
 19 37  1  0
 20 39  1  0
 20 40  1  0
 21 22  1  0
 22 23  1  0
 22 24  2  0
 23 25  2  0
 24 26  1  0
 25 27  1  0
 26 27  2  0
 28 46  1  0
 28 47  1  0
 28 48  1  0
 29 31  1  0
 30 32  1  0
 31 49  1  0
 31 50  1  0
 31 51  1  0
 32 52  1  0
 32 53  1  0
 32 54  1  0
M  END
> <Name>
443944

> <PUBCHEM_COMPOUND_CID>
443944

> <Toxicity>
0

> <Data Set>
TrainingSet

$$$$
2528
  SciTegic12242523262D

 32 32  0  0  0  0            999 V2000
    2.8660    0.5000    0.0000 I   0  0
    6.3300    0.5000    0.0000 I   0  0
    4.5980   -2.5000    0.0000 I   0  0
    6.3300    1.5000    0.0000 O   0  0
    7.1960   -1.0000    0.0000 O   0  0
    6.3300   -2.5000    0.0000 O   0  0
    3.7320   -3.0000    0.0000 O   0  0
    4.5980    1.5000    0.0000 N   0  0
    2.8660   -1.5000    0.0000 N   0  0
    4.5980    0.5000    0.0000 C   0  0
    3.7320   -1.0000    0.0000 C   0  0
    3.7320    0.0000    0.0000 C   0  0
    5.4640    0.0000    0.0000 C   0  0
    5.4640   -1.0000    0.0000 C   0  0
    4.5980   -1.5000    0.0000 C   0  0
    3.7320    2.0000    0.0000 C   0  0
    5.4640    2.0000    0.0000 C   0  0
    6.3300   -1.5000    0.0000 C   0  0
    5.4640    3.0000    0.0000 C   0  0
    2.8660   -2.5000    0.0000 C   0  0
    2.0000   -3.0000    0.0000 C   0  0
    4.0420    2.5370    0.0000 H   0  0
    3.1950    2.3100    0.0000 H   0  0
    3.4220    1.4630    0.0000 H   0  0
    2.3290   -1.1900    0.0000 H   0  0
    6.0840    3.0000    0.0000 H   0  0
    5.4640    3.6200    0.0000 H   0  0
    4.8440    3.0000    0.0000 H   0  0
    1.6900   -2.4630    0.0000 H   0  0
    1.4630   -3.3100    0.0000 H   0  0
    2.3100   -3.5370    0.0000 H   0  0
    7.7330   -1.3100    0.0000 H   0  0
  1 12  1  0
  2 13  1  0
  3 15  1  0
  4 17  2  0
  5 18  1  0
  5 32  1  0
  6 18  2  0
  7 20  2  0
  8 10  1  0
  8 16  1  0
  8 17  1  0
  9 11  1  0
  9 20  1  0
  9 25  1  0
 10 12  2  0
 10 13  1  0
 11 12  1  0
 11 15  2  0
 13 14  2  0
 14 15  1  0
 14 18  1  0
 16 22  1  0
 16 23  1  0
 16 24  1  0
 17 19  1  0
 19 26  1  0
 19 27  1  0
 19 28  1  0
 20 21  1  0
 21 29  1  0
 21 30  1  0
 21 31  1  0
M  END
> <Name>
2528

> <PUBCHEM_COMPOUND_CID>
2528

> <Toxicity>
0

> <Data Set>
TestSet

$$$$
4173
  SciTegic12242523262D

 21 21  0  0  0  0            999 V2000
    5.3690   -1.8640    0.0000 O   0  0
    2.0000    1.5840    0.0000 O   0  5
    2.5350   -0.0640    0.0000 O   0  0
    4.5030    0.6360    0.0000 N   0  0
    5.0030    2.1740    0.0000 N   0  0
    2.7430    0.9140    0.0000 N   0  3
    4.5030   -0.3640    0.0000 C   0  0
    5.3120    1.2230    0.0000 C   0  0
    3.6940    1.2230    0.0000 C   0  0
    5.3690   -0.8640    0.0000 C   0  0
    4.0030    2.1740    0.0000 C   0  0
    6.2630    0.9140    0.0000 C   0  0
    3.8930   -0.2570    0.0000 H   0  0
    4.2910   -0.9470    0.0000 H   0  0
    5.9800   -0.9720    0.0000 H   0  0
    5.5810   -0.2820    0.0000 H   0  0
    3.6390    2.6760    0.0000 H   0  0
    6.0720    0.3250    0.0000 H   0  0
    6.8530    0.7230    0.0000 H   0  0
    6.4550    1.5040    0.0000 H   0  0
    5.9060   -2.1740    0.0000 H   0  0
  1 10  1  0
  1 21  1  0
  2  6  1  0
  3  6  2  0
  4  7  1  0
  4  8  1  0
  4  9  1  0
  5  8  2  0
  5 11  1  0
  6  9  1  0
  7 10  1  0
  7 13  1  0
  7 14  1  0
  8 12  1  0
  9 11  2  0
 10 15  1  0
 10 16  1  0
 11 17  1  0
 12 18  1  0
 12 19  1  0
 12 20  1  0
M  CHG  2   2  -1   6   1
M  END
> <Name>
4173

> <PUBCHEM_COMPOUND_CID>
4173

> <Toxicity>
0

> <Data Set>
TestSet

$$$$
4174
  SciTegic12242523262D

 31 32  0  0  0  0            999 V2000
    2.1340    1.5000    0.0000 O   0  0
    3.8660   -2.5000    0.0000 N   0  0
    4.7320    3.0000    0.0000 N   0  0
    3.0000    0.0000    0.0000 C   0  0
    3.0000   -1.0000    0.0000 C   0  0
    4.0000    0.0000    0.0000 C   0  0
    2.0000    0.0000    0.0000 C   0  0
    3.0000    1.0000    0.0000 C   0  0
    3.8660    1.5000    0.0000 C   0  0
    2.1340   -1.5000    0.0000 C   0  0
    3.8660   -1.5000    0.0000 C   0  0
    2.1340   -2.5000    0.0000 C   0  0
    4.7320    1.0000    0.0000 C   0  0
    3.8660    2.5000    0.0000 C   0  0
    3.0000   -3.0000    0.0000 C   0  0
    5.5980    1.5000    0.0000 C   0  0
    5.5980    2.5000    0.0000 C   0  0
    4.0000   -0.6200    0.0000 H   0  0
    4.6200    0.0000    0.0000 H   0  0
    4.0000    0.6200    0.0000 H   0  0
    2.0000    0.6200    0.0000 H   0  0
    1.3800    0.0000    0.0000 H   0  0
    2.0000   -0.6200    0.0000 H   0  0
    1.5970   -1.1900    0.0000 H   0  0
    4.4030   -1.1900    0.0000 H   0  0
    1.5970   -2.8100    0.0000 H   0  0
    4.7320    0.3800    0.0000 H   0  0
    3.3290    2.8100    0.0000 H   0  0
    3.0000   -3.6200    0.0000 H   0  0
    6.1350    1.1900    0.0000 H   0  0
    6.1350    2.8100    0.0000 H   0  0
  1  8  2  0
  2 11  2  0
  2 15  1  0
  3 14  2  0
  3 17  1  0
  4  5  1  0
  4  6  1  0
  4  7  1  0
  4  8  1  0
  5 10  2  0
  5 11  1  0
  6 18  1  0
  6 19  1  0
  6 20  1  0
  7 21  1  0
  7 22  1  0
  7 23  1  0
  8  9  1  0
  9 13  2  0
  9 14  1  0
 10 12  1  0
 10 24  1  0
 11 25  1  0
 12 15  2  0
 12 26  1  0
 13 16  1  0
 13 27  1  0
 14 28  1  0
 15 29  1  0
 16 17  2  0
 16 30  1  0
 17 31  1  0
M  END
> <Name>
4174

> <PUBCHEM_COMPOUND_CID>
4174

> <Toxicity>
0

> <Data Set>
TrainingSet

$$$$
4178
  SciTegic12242523262D

 30 30  0  0  1  0            999 V2000
    3.7320    0.1900    0.0000 O   0  0
    5.4640    2.1900    0.0000 N   0  0
    4.5980    1.6900    0.0000 C   0  0
    4.5980    0.6900    0.0000 C   0  0
    3.7320   -0.8100    0.0000 C   0  0
    2.8660   -1.3100    0.0000 C   0  0
    4.5980   -1.3100    0.0000 C   0  0
    3.7320    2.1900    0.0000 C   0  0
    2.8660   -2.3100    0.0000 C   0  0
    4.5980   -2.3100    0.0000 C   0  0
    3.7320   -2.8100    0.0000 C   0  0
    2.0000   -0.8100    0.0000 C   0  0
    5.4640   -0.8100    0.0000 C   0  0
    4.5980    2.3100    0.0000 H   0  0
    4.8100    0.1070    0.0000 H   0  0
    5.2090    0.7980    0.0000 H   0  0
    4.0420    2.7270    0.0000 H   0  0
    3.1950    2.5000    0.0000 H   0  0
    3.4220    1.6530    0.0000 H   0  0
    2.3290   -2.6200    0.0000 H   0  0
    5.1350   -2.6200    0.0000 H   0  0
    5.4640    2.8100    0.0000 H   0  0
    6.0010    1.8800    0.0000 H   0  0
    3.7320   -3.4300    0.0000 H   0  0
    2.3100   -0.2730    0.0000 H   0  0
    1.4630   -0.5000    0.0000 H   0  0
    1.6900   -1.3470    0.0000 H   0  0
    5.7740   -1.3470    0.0000 H   0  0
    6.0010   -0.5000    0.0000 H   0  0
    5.1540   -0.2730    0.0000 H   0  0
  1  4  1  0
  1  5  1  0
  2  3  1  0
  2 22  1  0
  2 23  1  0
  3  4  1  0
  3  8  1  0
  3 14  1  0
  4 15  1  0
  4 16  1  0
  5  6  2  0
  5  7  1  0
  6  9  1  0
  6 12  1  0
  7 10  2  0
  7 13  1  0
  8 17  1  0
  8 18  1  0
  8 19  1  0
  9 11  2  0
  9 20  1  0
 10 11  1  0
 10 21  1  0
 11 24  1  0
 12 25  1  0
 12 26  1  0
 12 27  1  0
 13 28  1  0
 13 29  1  0
 13 30  1  0
M  END
> <Name>
4178

> <PUBCHEM_COMPOUND_CID>
4178

> <Toxicity>
0

> <Data Set>
TestSet

$$$$
4189
  SciTegic12242523262D

 39 41  0  0  1  0            999 V2000
    4.5980   -0.7500    0.0000 Cl  0  0
    6.3300   -3.7500    0.0000 Cl  0  0
    5.4640    3.7500    0.0000 Cl  0  0
    2.0000    3.7500    0.0000 Cl  0  0
    5.4640    0.7500    0.0000 O   0  0
    7.1960    1.7500    0.0000 N   0  0
    6.6960    3.2890    0.0000 N   0  0
    6.3300    0.2500    0.0000 C   0  0
    7.1960    0.7500    0.0000 C   0  0
    6.3300   -0.7500    0.0000 C   0  0
    5.4640    1.7500    0.0000 C   0  0
    5.4640   -1.2500    0.0000 C   0  0
    7.1960   -1.2500    0.0000 C   0  0
    4.5980    2.2500    0.0000 C   0  0
    8.0050    2.3380    0.0000 C   0  0
    6.3870    2.3380    0.0000 C   0  0
    5.4640   -2.2500    0.0000 C   0  0
    7.1960   -2.2500    0.0000 C   0  0
    6.3300   -2.7500    0.0000 C   0  0
    7.6960    3.2890    0.0000 C   0  0
    4.5980    3.2500    0.0000 C   0  0
    3.7320    1.7500    0.0000 C   0  0
    3.7320    3.7500    0.0000 C   0  0
    2.8660    2.2500    0.0000 C   0  0
    2.8660    3.2500    0.0000 C   0  0
    5.7930   -0.0600    0.0000 H   0  0
    7.4080    0.1670    0.0000 H   0  0
    7.8070    0.8580    0.0000 H   0  0
    6.0750    1.6420    0.0000 H   0  0
    5.6760    2.3330    0.0000 H   0  0
    7.7330   -0.9400    0.0000 H   0  0
    8.5950    2.1460    0.0000 H   0  0
    5.7980    2.1460    0.0000 H   0  0
    4.9270   -2.5600    0.0000 H   0  0
    7.7330   -2.5600    0.0000 H   0  0
    8.0610    3.7900    0.0000 H   0  0
    3.7320    1.1300    0.0000 H   0  0
    3.7320    4.3700    0.0000 H   0  0
    2.3290    1.9400    0.0000 H   0  0
  1 12  1  0
  2 19  1  0
  3 21  1  0
  4 25  1  0
  5  8  1  0
  5 11  1  0
  6  9  1  0
  6 15  1  0
  6 16  1  0
  7 16  2  0
  7 20  1  0
  8  9  1  0
  8 10  1  0
  8 26  1  0
  9 27  1  0
  9 28  1  0
 10 12  2  0
 10 13  1  0
 11 14  1  0
 11 29  1  0
 11 30  1  0
 12 17  1  0
 13 18  2  0
 13 31  1  0
 14 21  2  0
 14 22  1  0
 15 20  2  0
 15 32  1  0
 16 33  1  0
 17 19  2  0
 17 34  1  0
 18 19  1  0
 18 35  1  0
 20 36  1  0
 21 23  1  0
 22 24  2  0
 22 37  1  0
 23 25  2  0
 23 38  1  0
 24 25  1  0
 24 39  1  0
M  END
> <Name>
4189

> <PUBCHEM_COMPOUND_CID>
4189

> <Toxicity>
0

> <Data Set>
TrainingSet

$$$$
4192
  SciTegic12242523262D

 36 39  0  0  0  0            999 V2000
    2.0000   -0.2810    0.0000 Cl  0  0
    6.4640    2.2350    0.0000 F   0  0
    5.8370   -1.6080    0.0000 N   0  0
    6.3370    0.5820    0.0000 N   0  0
    6.9520   -2.7700    0.0000 N   0  0
    4.9360   -1.1740    0.0000 C   0  0
    6.7380   -1.1740    0.0000 C   0  0
    4.7140   -0.1990    0.0000 C   0  0
    6.9610   -0.1990    0.0000 C   0  0
    5.3370    0.5820    0.0000 C   0  0
    5.9730   -2.5930    0.0000 C   0  0
    7.4240   -1.8950    0.0000 C   0  0
    4.1840   -1.8950    0.0000 C   0  0
    3.7230    0.1230    0.0000 C   0  0
    4.9040    1.4830    0.0000 C   0  0
    5.2520   -3.2850    0.0000 C   0  0
    3.1860   -1.5950    0.0000 C   0  0
    2.9540   -0.5800    0.0000 C   0  0
    5.4670    2.3100    0.0000 C   0  0
    3.9060    1.5580    0.0000 C   0  0
    5.0330    3.2110    0.0000 C   0  0
    3.4720    2.4590    0.0000 C   0  0
    4.0360    3.2850    0.0000 C   0  0
    7.5200   -0.4680    0.0000 H   0  0
    7.3480    0.2850    0.0000 H   0  0
    8.0380   -1.8120    0.0000 H   0  0
    4.3290   -2.4970    0.0000 H   0  0
    3.5920    0.7290    0.0000 H   0  0
    4.8230   -2.8380    0.0000 H   0  0
    4.8040   -3.7140    0.0000 H   0  0
    5.6810   -3.7330    0.0000 H   0  0
    2.7330   -2.0190    0.0000 H   0  0
    3.5570    1.0460    0.0000 H   0  0
    5.3820    3.7230    0.0000 H   0  0
    2.8540    2.5050    0.0000 H   0  0
    3.7670    3.8440    0.0000 H   0  0
  1 18  1  0
  2 19  1  0
  3  6  1  0
  3  7  1  0
  3 11  1  0
  4  9  1  0
  4 10  2  0
  5 11  2  0
  5 12  1  0
  6  8  2  0
  6 13  1  0
  7  9  1  0
  7 12  2  0
  8 10  1  0
  8 14  1  0
  9 24  1  0
  9 25  1  0
 10 15  1  0
 11 16  1  0
 12 26  1  0
 13 17  2  0
 13 27  1  0
 14 18  2  0
 14 28  1  0
 15 19  2  0
 15 20  1  0
 16 29  1  0
 16 30  1  0
 16 31  1  0
 17 18  1  0
 17 32  1  0
 19 21  1  0
 20 22  2  0
 20 33  1  0
 21 23  2  0
 21 34  1  0
 22 23  1  0
 22 35  1  0
 23 36  1  0
M  END
> <Name>
4192

> <PUBCHEM_COMPOUND_CID>
4192

> <Toxicity>
0

> <Data Set>
TestSet

$$$$
441314
  SciTegic12242523262D

 31 31  0  0  1  0            999 V2000
    6.0010    1.7500    0.0000 O   0  0
    4.2690    2.7500    0.0000 O   0  0
    2.5370    1.7500    0.0000 O   0  0
    6.0010   -1.2500    0.0000 O   0  0
    3.4030   -2.7500    0.0000 O   0  0
    4.2690   -0.2500    0.0000 N   0  0
    5.1350    0.2500    0.0000 C   0  0  1  0  0  0
    5.1350    1.2500    0.0000 C   0  0  2  0  0  0
    4.2690    1.7500    0.0000 C   0  0  1  0  0  0
    3.4030    1.2500    0.0000 C   0  0  2  0  0  0
    3.4030    0.2500    0.0000 C   0  0
    6.0010   -0.2500    0.0000 C   0  0
    4.2690   -1.2500    0.0000 C   0  0
    3.4030   -1.7500    0.0000 C   0  0
    5.1350   -0.3700    0.0000 H   0  0
    5.1350    1.8700    0.0000 H   0  0
    3.7320    2.0600    0.0000 H   0  0
    3.4030    1.8700    0.0000 H   0  0
    2.7920    0.3580    0.0000 H   0  0
    3.1910   -0.3330    0.0000 H   0  0
    6.6120   -0.3580    0.0000 H   0  0
    6.2130    0.3330    0.0000 H   0  0
    4.4810   -1.8330    0.0000 H   0  0
    4.8800   -1.1420    0.0000 H   0  0
    6.0010    2.3700    0.0000 H   0  0
    3.7320    3.0600    0.0000 H   0  0
    3.1910   -1.1670    0.0000 H   0  0
    2.7920   -1.8580    0.0000 H   0  0
    2.0000    1.4400    0.0000 H   0  0
    6.5380   -1.5600    0.0000 H   0  0
    2.8660   -3.0600    0.0000 H   0  0
  8  1  1  6
  1 25  1  0
  9  2  1  1
  2 26  1  0
 10  3  1  6
  3 29  1  0
  4 12  1  0
  4 30  1  0
  5 14  1  0
  5 31  1  0
  6  7  1  0
  6 11  1  0
  6 13  1  0
  7  8  1  0
  7 12  1  1
  7 15  1  6
  8  9  1  0
  8 16  1  1
  9 10  1  0
  9 17  1  6
 10 11  1  0
 10 18  1  1
 11 19  1  0
 11 20  1  0
 12 21  1  0
 12 22  1  0
 13 14  1  0
 13 23  1  0
 13 24  1  0
 14 27  1  0
 14 28  1  0
M  END
> <Name>
441314

> <PUBCHEM_COMPOUND_CID>
441314

> <Toxicity>
0

> <Data Set>
TrainingSet

$$$$
4197
  SciTegic12242523262D

 25 26  0  0  0  0            999 V2000
    7.1960   -1.4400    0.0000 O   0  0
    5.4640   -1.4400    0.0000 N   0  0
    2.0000    1.5600    0.0000 N   0  0
    8.0620    1.0600    0.0000 N   0  0
    4.5980    0.0600    0.0000 C   0  0
    4.5980   -0.9400    0.0000 C   0  0
    3.7320    0.5600    0.0000 C   0  0
    5.4640    0.5600    0.0000 C   0  0
    6.3300    0.0600    0.0000 C   0  0
    3.7320   -1.4400    0.0000 C   0  0
    6.3300   -0.9400    0.0000 C   0  0
    2.8660    0.0600    0.0000 C   0  0
    3.7320    1.5600    0.0000 C   0  0
    2.0000    0.5600    0.0000 C   0  0
    2.8660    2.0600    0.0000 C   0  0
    7.1960    0.5600    0.0000 C   0  0
    5.4640    1.1800    0.0000 H   0  0
    5.4640   -2.0600    0.0000 H   0  0
    3.4220   -0.9030    0.0000 H   0  0
    3.1950   -1.7500    0.0000 H   0  0
    4.0420   -1.9770    0.0000 H   0  0
    2.8660   -0.5600    0.0000 H   0  0
    4.2690    1.8700    0.0000 H   0  0
    1.4630    0.2500    0.0000 H   0  0
    2.8660    2.6800    0.0000 H   0  0
  1 11  2  0
  2  6  1  0
  2 11  1  0
  2 18  1  0
  3 14  2  0
  3 15  1  0
  4 16  3  0
  5  6  2  0
  5  7  1  0
  5  8  1  0
  6 10  1  0
  7 12  2  0
  7 13  1  0
  8  9  2  0
  8 17  1  0
  9 11  1  0
  9 16  1  0
 10 19  1  0
 10 20  1  0
 10 21  1  0
 12 14  1  0
 12 22  1  0
 13 15  2  0
 13 23  1  0
 14 24  1  0
 15 25  1  0
M  END
> <Name>
4197

> <PUBCHEM_COMPOUND_CID>
4197

> <Toxicity>
1

> <Data Set>
TrainingSet

$$$$
4201
  SciTegic12242523262D

 30 31  0  0  0  0            999 V2000
    4.2690   -2.8450    0.0000 O   0  0
    4.2690    1.1550    0.0000 N   0  0
    5.1350   -0.3450    0.0000 N   0  0
    4.2690   -1.8450    0.0000 N   0  0
    2.5370   -1.8450    0.0000 N   0  0
    6.0010   -1.8450    0.0000 N   0  0
    4.2690    3.1550    0.0000 C   0  0
    5.1350    2.6550    0.0000 C   0  0
    3.4030    2.6550    0.0000 C   0  0
    5.1350    1.6550    0.0000 C   0  0
    3.4030    1.6550    0.0000 C   0  0
    4.2690    0.1550    0.0000 C   0  0
    3.4030   -0.3450    0.0000 C   0  0
    3.4030   -1.3450    0.0000 C   0  0
    5.1350   -1.3450    0.0000 C   0  0
    4.6680    3.6300    0.0000 H   0  0
    3.8700    3.6300    0.0000 H   0  0
    5.7460    2.5470    0.0000 H   0  0
    5.3470    3.2380    0.0000 H   0  0
    3.1910    3.2380    0.0000 H   0  0
    2.7920    2.5470    0.0000 H   0  0
    5.3470    1.0720    0.0000 H   0  0
    5.7460    1.7630    0.0000 H   0  0
    2.7920    1.7630    0.0000 H   0  0
    3.1910    1.0720    0.0000 H   0  0
    2.8660   -0.0350    0.0000 H   0  0
    2.0000   -1.5350    0.0000 H   0  0
    2.5370   -2.4650    0.0000 H   0  0
    6.5380   -1.5350    0.0000 H   0  0
    4.8060   -3.1550    0.0000 H   0  0
  1  4  1  0
  1 30  1  0
  2 10  1  0
  2 11  1  0
  2 12  1  0
  3 12  2  0
  3 15  1  0
  4 14  1  0
  4 15  1  0
  5 14  1  0
  5 27  1  0
  5 28  1  0
  6 15  2  0
  6 29  1  0
  7  8  1  0
  7  9  1  0
  7 16  1  0
  7 17  1  0
  8 10  1  0
  8 18  1  0
  8 19  1  0
  9 11  1  0
  9 20  1  0
  9 21  1  0
 10 22  1  0
 10 23  1  0
 11 24  1  0
 11 25  1  0
 12 13  1  0
 13 14  2  0
 13 26  1  0
M  END
> <Name>
4201

> <PUBCHEM_COMPOUND_CID>
4201

> <Toxicity>
1

> <Data Set>
TrainingSet

$$$$
5282381
  SciTegic12242523262D

 65 65  0  0  1  0            999 V2000
   12.2970   -2.1050    0.0000 O   0  0
    9.4490   -4.1740    0.0000 O   0  0
   11.7690    2.0400    0.0000 O   0  0
    2.9510   -3.8540    0.0000 O   0  0
    3.4860   -2.2070    0.0000 O   0  0
    9.7280   -2.4140    0.0000 C   0  0  1  0  0  0
   10.5370   -1.8260    0.0000 C   0  0  2  0  0  0
   11.3460   -2.4140    0.0000 C   0  0  1  0  0  0
   11.0370   -3.3650    0.0000 C   0  0
    8.7770   -2.1050    0.0000 C   0  0
   10.0370   -3.3650    0.0000 C   0  0
   10.5370   -0.8260    0.0000 C   0  0
    8.0340   -2.7740    0.0000 C   0  0
    7.0830   -2.4650    0.0000 C   0  0
   11.4030   -0.3260    0.0000 C   0  0
   12.2690    1.1740    0.0000 C   0  0
   11.4030    0.6740    0.0000 C   0  0
    6.3400   -3.1340    0.0000 C   0  0
   13.1350    1.6740    0.0000 C   0  0
   12.7690    0.3080    0.0000 C   0  0
    5.3880   -2.8250    0.0000 C   0  0
   13.1350    2.6740    0.0000 C   0  0
   14.0010    3.1740    0.0000 C   0  0
    4.6450   -3.4940    0.0000 C   0  0
   14.0010    4.1740    0.0000 C   0  0
    3.6940   -3.1850    0.0000 C   0  0
    2.0000   -3.5450    0.0000 C   0  0
    9.6310   -1.8020    0.0000 H   0  0
    9.9840   -1.5450    0.0000 H   0  0
   11.4430   -1.8020    0.0000 H   0  0
   10.9720   -3.9820    0.0000 H   0  0
   11.6430   -3.4940    0.0000 H   0  0
    9.0680   -1.5570    0.0000 H   0  0
    8.2880   -1.7230    0.0000 H   0  0
   10.0000   -0.5160    0.0000 H   0  0
    7.7430   -3.3210    0.0000 H   0  0
    8.5220   -3.1560    0.0000 H   0  0
    7.3740   -1.9180    0.0000 H   0  0
    6.5940   -2.0830    0.0000 H   0  0
   11.9400   -0.6360    0.0000 H   0  0
   11.1910    1.2560    0.0000 H   0  0
   10.7920    0.5660    0.0000 H   0  0
   12.7580   -2.5200    0.0000 H   0  0
    6.0480   -3.6820    0.0000 H   0  0
    6.8280   -3.5160    0.0000 H   0  0
   13.3470    1.0910    0.0000 H   0  0
   13.7460    1.7820    0.0000 H   0  0
   12.2320   -0.0020    0.0000 H   0  0
   13.0790   -0.2290    0.0000 H   0  0
   13.3060    0.6180    0.0000 H   0  0
    5.6800   -2.2780    0.0000 H   0  0
    4.9000   -2.4430    0.0000 H   0  0
   12.9230    3.2560    0.0000 H   0  0
   12.5240    2.5660    0.0000 H   0  0
   11.1490    2.0400    0.0000 H   0  0
   14.2130    2.5910    0.0000 H   0  0
   14.6120    3.2820    0.0000 H   0  0
    4.3540   -4.0420    0.0000 H   0  0
    5.1340   -3.8760    0.0000 H   0  0
   14.6210    4.1740    0.0000 H   0  0
   14.0010    4.7940    0.0000 H   0  0
   13.3810    4.1740    0.0000 H   0  0
    2.1920   -2.9560    0.0000 H   0  0
    1.4100   -3.3540    0.0000 H   0  0
    1.8080   -4.1350    0.0000 H   0  0
  8  1  1  6
  1 43  1  0
  2 11  2  0
  3 16  1  0
  3 55  1  0
  4 26  1  0
  4 27  1  0
  5 26  2  0
  6  7  1  0
  6 10  1  6
  6 11  1  0
  6 28  1  1
  7  8  1  0
  7 12  1  1
  7 29  1  6
  8  9  1  0
  8 30  1  1
  9 11  1  0
  9 31  1  0
  9 32  1  0
 10 13  1  0
 10 33  1  0
 10 34  1  0
 12 15  2  0
 12 35  1  0
 13 14  1  0
 13 36  1  0
 13 37  1  0
 14 18  1  0
 14 38  1  0
 14 39  1  0
 15 17  1  0
 15 40  1  0
 16 17  1  0
 16 19  1  0
 16 20  1  0
 17 41  1  0
 17 42  1  0
 18 21  1  0
 18 44  1  0
 18 45  1  0
 19 22  1  0
 19 46  1  0
 19 47  1  0
 20 48  1  0
 20 49  1  0
 20 50  1  0
 21 24  1  0
 21 51  1  0
 21 52  1  0
 22 23  1  0
 22 53  1  0
 22 54  1  0
 23 25  1  0
 23 56  1  0
 23 57  1  0
 24 26  1  0
 24 58  1  0
 24 59  1  0
 25 60  1  0
 25 61  1  0
 25 62  1  0
 27 63  1  0
 27 64  1  0
 27 65  1  0
M  END
> <Name>
5282381

> <PUBCHEM_COMPOUND_CID>
5282381

> <Toxicity>
0

> <Data Set>
TrainingSet

$$$$
5746
  SciTegic12242523262D

 42 45  0  0  1  0            999 V2000
    7.1060    1.0890    0.0000 O   0  0
    6.1650   -0.9910    0.0000 O   0  0
    3.3770    2.8630    0.0000 O   0  0
    4.6340   -0.9950    0.0000 O   0  0
    7.7460   -1.6980    0.0000 O   0  0
    7.7760    3.0080    0.0000 N   0  0
    5.4880    2.2650    0.0000 N   0  0
    2.6330   -0.5870    0.0000 N   0  0
    6.3440   -2.7140    0.0000 N   0  0
    7.1060    2.2650    0.0000 C   0  0  2  0  0  0
    6.2970    1.6770    0.0000 C   0  0  1  0  0  0
    6.7970    3.2160    0.0000 C   0  0  2  0  0  0
    5.7970    3.2160    0.0000 C   0  0
    5.9870    0.7320    0.0000 C   0  0  1  0  0  0
    4.6850    1.6780    0.0000 C   0  0
    4.9930    0.7330    0.0000 C   0  0
    6.5740   -0.0780    0.0000 C   0  0
    3.6760    1.9080    0.0000 C   0  0
    4.3130   -0.0480    0.0000 C   0  0
    8.0200    1.4960    0.0000 C   0  0
    2.9780    1.1440    0.0000 C   0  0
    3.2980    0.1590    0.0000 C   0  0
    2.0000    1.3540    0.0000 C   0  0
    6.7520   -1.8010    0.0000 C   0  0
    7.5210    1.8040    0.0000 H   0  0
    6.8620    3.8320    0.0000 H   0  0
    8.3650    3.2000    0.0000 H   0  0
    5.8620    3.8320    0.0000 H   0  0
    5.1900    3.3450    0.0000 H   0  0
    6.6000    0.8280    0.0000 H   0  0
    7.0870   -0.4250    0.0000 H   0  0
    7.0050    0.3680    0.0000 H   0  0
    8.2720    0.9290    0.0000 H   0  0
    8.5860    1.7480    0.0000 H   0  0
    7.7670    2.0620    0.0000 H   0  0
    2.1310    1.9600    0.0000 H   0  0
    1.3940    1.4850    0.0000 H   0  0
    1.8690    0.7480    0.0000 H   0  0
    2.0260   -0.4610    0.0000 H   0  0
    2.8270   -1.1760    0.0000 H   0  0
    6.7070   -3.2160    0.0000 H   0  0
    5.7270   -2.7770    0.0000 H   0  0
 11  1  1  1
  1 20  1  0
  2 17  1  0
  2 24  1  0
  3 18  2  0
  4 19  2  0
  5 24  2  0
  6 10  1  0
  6 12  1  0
  6 27  1  0
  7 11  1  0
  7 13  1  0
  7 15  1  0
  8 22  1  0
  8 39  1  0
  8 40  1  0
  9 24  1  0
  9 41  1  0
  9 42  1  0
 10 11  1  0
 10 12  1  0
 10 25  1  1
 11 14  1  0
 12 13  1  0
 12 26  1  1
 13 28  1  0
 13 29  1  0
 14 16  1  0
 14 17  1  6
 14 30  1  1
 15 16  2  0
 15 18  1  0
 16 19  1  0
 17 31  1  0
 17 32  1  0
 18 21  1  0
 19 22  1  0
 20 33  1  0
 20 34  1  0
 20 35  1  0
 21 22  2  0
 21 23  1  0
 23 36  1  0
 23 37  1  0
 23 38  1  0
M  END
> <Name>
5746

> <PUBCHEM_COMPOUND_CID>
5746

> <Toxicity>
1

> <Data Set>
TestSet

$$$$
4212
  SciTegic12242523262D

 60 62  0  0  0  0            999 V2000
    4.6660    2.0000    0.0000 O   0  0
    4.6660   -2.0000    0.0000 O   0  0
    2.9180    2.0350    0.0000 O   0  0
    2.9180   -2.0350    0.0000 O   0  0
    8.9600    6.5640    0.0000 O   0  0
    8.9600   -6.5640    0.0000 O   0  0
    6.4140    2.0350    0.0000 N   0  0
    6.4140   -2.0350    0.0000 N   0  0
    8.1230    4.0540    0.0000 N   0  0
    8.1230   -4.0540    0.0000 N   0  0
    5.5320    0.5000    0.0000 C   0  0
    5.5320   -0.5000    0.0000 C   0  0
    6.4260    1.0350    0.0000 C   0  0
    6.4260   -1.0350    0.0000 C   0  0
    3.8000    0.5000    0.0000 C   0  0
    3.8000   -0.5000    0.0000 C   0  0
    4.6660    1.0000    0.0000 C   0  0
    4.6660   -1.0000    0.0000 C   0  0
    7.3320    0.5210    0.0000 C   0  0
    7.3320   -0.5210    0.0000 C   0  0
    7.2750    2.5450    0.0000 C   0  0
    7.2750   -2.5450    0.0000 C   0  0
    2.9060    1.0350    0.0000 C   0  0
    2.9060   -1.0350    0.0000 C   0  0
    7.2630    3.5440    0.0000 C   0  0
    7.2630   -3.5440    0.0000 C   0  0
    2.0000    0.5210    0.0000 C   0  0
    2.0000   -0.5210    0.0000 C   0  0
    8.1120    5.0540    0.0000 C   0  0
    8.1120   -5.0540    0.0000 C   0  0
    8.9720    5.5640    0.0000 C   0  0
    8.9720   -5.5640    0.0000 C   0  0
    7.8680    0.8330    0.0000 H   0  0
    7.8680   -0.8330    0.0000 H   0  0
    5.8740    2.3380    0.0000 H   0  0
    5.8740   -2.3380    0.0000 H   0  0
    7.4930    1.9640    0.0000 H   0  0
    7.8840    2.6590    0.0000 H   0  0
    7.8840   -2.6590    0.0000 H   0  0
    7.4930   -1.9640    0.0000 H   0  0
    7.0440    4.1250    0.0000 H   0  0
    6.6540    3.4300    0.0000 H   0  0
    6.6540   -3.4300    0.0000 H   0  0
    7.0440   -4.1250    0.0000 H   0  0
    1.4640    0.8330    0.0000 H   0  0
    1.4640   -0.8330    0.0000 H   0  0
    8.6640    3.7510    0.0000 H   0  0
    8.6640   -3.7510    0.0000 H   0  0
    7.8930    5.6340    0.0000 H   0  0
    7.5020    4.9400    0.0000 H   0  0
    7.5020   -4.9400    0.0000 H   0  0
    7.8930   -5.6340    0.0000 H   0  0
    2.3840    2.3510    0.0000 H   0  0
    2.3840   -2.3510    0.0000 H   0  0
    9.1910    4.9840    0.0000 H   0  0
    9.5810    5.6790    0.0000 H   0  0
    9.5810   -5.6790    0.0000 H   0  0
    9.1910   -4.9840    0.0000 H   0  0
    9.4940    6.8800    0.0000 H   0  0
    9.4940   -6.8800    0.0000 H   0  0
  1 17  2  0
  2 18  2  0
  3 23  1  0
  3 53  1  0
  4 24  1  0
  4 54  1  0
  5 31  1  0
  5 59  1  0
  6 32  1  0
  6 60  1  0
  7 13  1  0
  7 21  1  0
  7 35  1  0
  8 14  1  0
  8 22  1  0
  8 36  1  0
  9 25  1  0
  9 29  1  0
  9 47  1  0
 10 26  1  0
 10 30  1  0
 10 48  1  0
 11 12  2  0
 11 13  1  0
 11 17  1  0
 12 14  1  0
 12 18  1  0
 13 19  2  0
 14 20  2  0
 15 16  2  0
 15 17  1  0
 15 23  1  0
 16 18  1  0
 16 24  1  0
 19 20  1  0
 19 33  1  0
 20 34  1  0
 21 25  1  0
 21 37  1  0
 21 38  1  0
 22 26  1  0
 22 39  1  0
 22 40  1  0
 23 27  2  0
 24 28  2  0
 25 41  1  0
 25 42  1  0
 26 43  1  0
 26 44  1  0
 27 28  1  0
 27 45  1  0
 28 46  1  0
 29 31  1  0
 29 49  1  0
 29 50  1  0
 30 32  1  0
 30 51  1  0
 30 52  1  0
 31 55  1  0
 31 56  1  0
 32 57  1  0
 32 58  1  0
M  END
> <Name>
4212

> <PUBCHEM_COMPOUND_CID>
4212

> <Toxicity>
1

> <Data Set>
TrainingSet

$$$$
3034396
  SciTegic12242523262D

 59 62  0  0  1  0            999 V2000
    3.6530    2.8400    0.0000 O   0  0
    9.2080   -3.3790    0.0000 O   0  0
    6.2760   -2.7440    0.0000 O   0  0
    9.5750   -1.6860    0.0000 O   0  0
    6.9650    0.7000    0.0000 N   0  0
    4.5120   -0.4170    0.0000 N   0  0
    6.2960   -0.0430    0.0000 C   0  0  1  0  0  0
    8.3170   -0.4890    0.0000 C   0  0  1  0  0  0
    7.6200   -1.2630    0.0000 C   0  0  2  0  0  0
    6.6030   -1.0380    0.0000 C   0  0
    7.9880    0.4990    0.0000 C   0  0
    5.3180    0.1650    0.0000 C   0  0
    6.6560    1.6510    0.0000 C   0  0
    5.0090    1.1160    0.0000 C   0  0
    5.6780    1.8590    0.0000 C   0  0
    9.2960   -0.6930    0.0000 C   0  0
    7.9250   -2.2150    0.0000 C   0  0
    4.0150    1.1130    0.0000 C   0  0
    3.7090    0.1680    0.0000 C   0  0
    9.9620    0.0530    0.0000 C   0  0
    3.3330    1.8930    0.0000 C   0  0
    8.9030   -2.4270    0.0000 C   0  0
    7.2530   -2.9560    0.0000 C   0  0
    2.6990   -0.0640    0.0000 C   0  0
    2.3190    1.6840    0.0000 C   0  0
    2.0000    0.6990    0.0000 C   0  0
    2.9910    3.5910    0.0000 C   0  0
   10.1850   -3.5910    0.0000 C   0  0
    5.6040   -3.4850    0.0000 C   0  0
    5.7230   -0.6700    0.0000 H   0  0
    8.7290   -0.0260    0.0000 H   0  0
    8.2260   -1.3930    0.0000 H   0  0
    5.9880   -1.1170    0.0000 H   0  0
    6.5750   -1.6580    0.0000 H   0  0
    8.6000    0.5920    0.0000 H   0  0
    8.0010    1.1190    0.0000 H   0  0
    7.2700    1.7370    0.0000 H   0  0
    6.6780    2.2710    0.0000 H   0  0
    5.9100    2.4340    0.0000 H   0  0
    5.1520    2.1880    0.0000 H   0  0
    9.0660   -1.2690    0.0000 H   0  0
    9.8230   -1.0200    0.0000 H   0  0
    4.5110   -1.0370    0.0000 H   0  0
   10.4240   -0.3600    0.0000 H   0  0
   10.3750    0.5150    0.0000 H   0  0
    9.5000    0.4660    0.0000 H   0  0
    7.4430   -3.5460    0.0000 H   0  0
    2.5150   -0.6560    0.0000 H   0  0
    1.9060    2.1460    0.0000 H   0  0
    1.3940    0.5680    0.0000 H   0  0
    3.4570    4.0010    0.0000 H   0  0
    2.5820    4.0560    0.0000 H   0  0
    2.5260    3.1810    0.0000 H   0  0
   10.0540   -4.1970    0.0000 H   0  0
   10.7910   -3.7220    0.0000 H   0  0
   10.3170   -2.9850    0.0000 H   0  0
    5.1450   -3.0680    0.0000 H   0  0
    5.1870   -3.9440    0.0000 H   0  0
    6.0630   -3.9010    0.0000 H   0  0
  1 21  1  0
  1 27  1  0
  2 22  1  0
  2 28  1  0
  3 23  1  0
  3 29  1  0
  4 22  2  0
  5  7  1  0
  5 11  1  0
  5 13  1  0
  6 12  1  0
  6 19  1  0
  6 43  1  0
  7 10  1  0
  7 12  1  0
  7 30  1  6
  8  9  1  0
  8 11  1  0
  8 16  1  1
  8 31  1  6
  9 10  1  0
  9 17  1  1
  9 32  1  6
 10 33  1  0
 10 34  1  0
 11 35  1  0
 11 36  1  0
 12 14  2  0
 13 15  1  0
 13 37  1  0
 13 38  1  0
 14 15  1  0
 14 18  1  0
 15 39  1  0
 15 40  1  0
 16 20  1  0
 16 41  1  0
 16 42  1  0
 17 22  1  0
 17 23  2  0
 18 19  2  0
 18 21  1  0
 19 24  1  0
 20 44  1  0
 20 45  1  0
 20 46  1  0
 21 25  2  0
 23 47  1  0
 24 26  2  0
 24 48  1  0
 25 26  1  0
 25 49  1  0
 26 50  1  0
 27 51  1  0
 27 52  1  0
 27 53  1  0
 28 54  1  0
 28 55  1  0
 28 56  1  0
 29 57  1  0
 29 58  1  0
 29 59  1  0
M  END
> <Name>
3034396

> <PUBCHEM_COMPOUND_CID>
3034396

> <Toxicity>
1

> <Data Set>
TrainingSet

$$$$
4235
  SciTegic12242523262D

 35 36  0  0  0  0            999 V2000
    2.8660   -4.5000    0.0000 Cl  0  0
    4.5980    4.5000    0.0000 O   0  0
    2.0000    0.0000    0.0000 O   0  0
    4.5980    2.5000    0.0000 N   0  0
    3.7320    0.0000    0.0000 N   0  0
    5.4640    3.0000    0.0000 C   0  0
    3.7320    3.0000    0.0000 C   0  0
    4.5980    1.5000    0.0000 C   0  0
    5.4640    4.0000    0.0000 C   0  0
    3.7320    4.0000    0.0000 C   0  0
    3.7320    1.0000    0.0000 C   0  0
    2.8660   -0.5000    0.0000 C   0  0
    2.8660   -1.5000    0.0000 C   0  0
    2.0000   -2.0000    0.0000 C   0  0
    3.7320   -2.0000    0.0000 C   0  0
    2.0000   -3.0000    0.0000 C   0  0
    3.7320   -3.0000    0.0000 C   0  0
    2.8660   -3.5000    0.0000 C   0  0
    5.6760    2.4170    0.0000 H   0  0
    6.0750    3.1080    0.0000 H   0  0
    3.1220    3.1080    0.0000 H   0  0
    3.5200    2.4170    0.0000 H   0  0
    4.8100    0.9170    0.0000 H   0  0
    5.2090    1.6080    0.0000 H   0  0
    6.0750    3.8920    0.0000 H   0  0
    5.6760    4.5830    0.0000 H   0  0
    3.5200    4.5830    0.0000 H   0  0
    3.1220    3.8920    0.0000 H   0  0
    3.5200    1.5830    0.0000 H   0  0
    3.1220    0.8920    0.0000 H   0  0
    4.2690   -0.3100    0.0000 H   0  0
    1.4630   -1.6900    0.0000 H   0  0
    4.2690   -1.6900    0.0000 H   0  0
    1.4630   -3.3100    0.0000 H   0  0
    4.2690   -3.3100    0.0000 H   0  0
  1 18  1  0
  2  9  1  0
  2 10  1  0
  3 12  2  0
  4  6  1  0
  4  7  1  0
  4  8  1  0
  5 11  1  0
  5 12  1  0
  5 31  1  0
  6  9  1  0
  6 19  1  0
  6 20  1  0
  7 10  1  0
  7 21  1  0
  7 22  1  0
  8 11  1  0
  8 23  1  0
  8 24  1  0
  9 25  1  0
  9 26  1  0
 10 27  1  0
 10 28  1  0
 11 29  1  0
 11 30  1  0
 12 13  1  0
 13 14  2  0
 13 15  1  0
 14 16  1  0
 14 32  1  0
 15 17  2  0
 15 33  1  0
 16 18  2  0
 16 34  1  0
 17 18  1  0
 17 35  1  0
M  END
> <Name>
4235

> <PUBCHEM_COMPOUND_CID>
4235

> <Toxicity>
1

> <Data Set>
TrainingSet

$$$$
145996610
  SciTegic12242523262D

 42 43  0  0  1  0            999 V2000
    5.0300   -1.1650    0.0000 O   0  0
    3.1330   -2.9250    0.0000 O   0  0
    2.4610   -0.8560    0.0000 O   0  0
    6.3030   -2.8200    0.0000 O   0  0
    5.9530    0.4230    0.0000 O   0  0
    6.4840   -4.5430    0.0000 O   0  0
    3.3550    3.9230    0.0000 O   0  0
    4.2210    0.4230    0.0000 N   0  0
    5.0870    1.9230    0.0000 N   0  0
    4.2210    3.4230    0.0000 N   0  0
    3.7210   -2.1160    0.0000 C   0  0  1  0  0  0
    3.4120   -1.1650    0.0000 C   0  0  2  0  0  0
    4.7210   -2.1160    0.0000 C   0  0  1  0  0  0
    4.2210   -0.5770    0.0000 C   0  0  1  0  0  0
    5.3090   -2.9250    0.0000 C   0  0
    3.3550    0.9230    0.0000 C   0  0
    5.0870    0.9230    0.0000 C   0  0
    6.8910   -3.6290    0.0000 C   0  0
    3.3550    1.9230    0.0000 C   0  0
    7.8850   -3.5250    0.0000 C   0  0
    4.2210    2.4230    0.0000 C   0  0
    8.4730   -4.3340    0.0000 C   0  0
    8.2920   -2.6110    0.0000 C   0  0
    3.1080   -2.0190    0.0000 H   0  0
    2.9730   -1.6030    0.0000 H   0  0
    5.3330   -2.0190    0.0000 H   0  0
    3.6680   -0.2960    0.0000 H   0  0
    4.7510   -3.1970    0.0000 H   0  0
    5.4800   -3.5210    0.0000 H   0  0
    3.3850   -3.4910    0.0000 H   0  0
    2.0000   -1.2710    0.0000 H   0  0
    2.8180    0.6130    0.0000 H   0  0
    2.8180    2.2330    0.0000 H   0  0
    7.5210   -3.0230    0.0000 H   0  0
    7.9720   -4.6980    0.0000 H   0  0
    8.8380   -4.8360    0.0000 H   0  0
    8.9750   -3.9700    0.0000 H   0  0
    8.8590   -2.8640    0.0000 H   0  0
    8.5440   -2.0450    0.0000 H   0  0
    7.7260   -2.3590    0.0000 H   0  0
    4.7580    3.7330    0.0000 H   0  0
    3.3550    4.5430    0.0000 H   0  0
  1 13  1  0
  1 14  1  0
 11  2  1  1
  2 30  1  0
 12  3  1  1
  3 31  1  0
  4 15  1  0
  4 18  1  0
  5 17  2  0
  6 18  2  0
  7 10  1  0
  7 42  1  0
 14  8  1  6
  8 16  1  0
  8 17  1  0
  9 17  1  0
  9 21  2  0
 10 21  1  0
 10 41  1  0
 11 12  1  0
 11 13  1  0
 11 24  1  6
 12 14  1  0
 12 25  1  6
 13 15  1  6
 13 26  1  1
 14 27  1  1
 15 28  1  0
 15 29  1  0
 16 19  2  0
 16 32  1  0
 18 20  1  0
 19 21  1  0
 19 33  1  0
 20 22  1  0
 20 23  1  0
 20 34  1  0
 22 35  1  0
 22 36  1  0
 22 37  1  0
 23 38  1  0
 23 39  1  0
 23 40  1  0
M  END
> <Name>
145996610

> <PUBCHEM_COMPOUND_CID>
145996610

> <Toxicity>
1

> <Data Set>
TrainingSet

$$$$
25062766
  SciTegic12242523262D

 53 56  0  0  0  0            999 V2000
   16.7220    2.5000    0.0000 O   0  0
    5.4640   -3.0000    0.0000 O   0  0
   14.9900    1.5000    0.0000 N   0  0
   11.5260   -0.5000    0.0000 N   0  0
    9.7940   -0.5000    0.0000 N   0  0
   10.6600    1.0000    0.0000 N   0  0
    4.5980   -1.5000    0.0000 N   0  0
    2.0000   -1.0000    0.0000 N   0  0
   14.9900    2.5000    0.0000 C   0  0
   15.8560    1.0000    0.0000 C   0  0
   15.8560    3.0000    0.0000 C   0  0
   16.7220    1.5000    0.0000 C   0  0
   14.1240    1.0000    0.0000 C   0  0
   13.2580    1.5000    0.0000 C   0  0
   14.1240    0.0000    0.0000 C   0  0
   12.3920    0.0000    0.0000 C   0  0
   12.3920    1.0000    0.0000 C   0  0
   13.2580   -0.5000    0.0000 C   0  0
   10.6600    0.0000    0.0000 C   0  0
    8.0620   -0.5000    0.0000 C   0  0
    8.9280    0.0000    0.0000 C   0  0
    7.1960    0.0000    0.0000 C   0  0
    8.0620   -1.5000    0.0000 C   0  0
    6.3300   -1.5000    0.0000 C   0  0
    8.9280    1.0000    0.0000 C   0  0
    6.3300   -0.5000    0.0000 C   0  0
    7.1960   -2.0000    0.0000 C   0  0
    9.7940    1.5000    0.0000 C   0  0
    5.4640   -2.0000    0.0000 C   0  0
    3.7320   -2.0000    0.0000 C   0  0
    2.8660   -1.5000    0.0000 C   0  0
   14.7780    3.0830    0.0000 H   0  0
   14.3800    2.3920    0.0000 H   0  0
   15.4580    0.5250    0.0000 H   0  0
   16.2550    0.5250    0.0000 H   0  0
   16.2550    3.4750    0.0000 H   0  0
   15.4580    3.4750    0.0000 H   0  0
   16.9340    0.9170    0.0000 H   0  0
   17.3330    1.6080    0.0000 H   0  0
   13.2580    2.1200    0.0000 H   0  0
   14.6610   -0.3100    0.0000 H   0  0
   11.8550    1.3100    0.0000 H   0  0
   13.2580   -1.1200    0.0000 H   0  0
   11.5260   -1.1200    0.0000 H   0  0
    7.1960    0.6200    0.0000 H   0  0
    8.5990   -1.8100    0.0000 H   0  0
    8.3910    1.3100    0.0000 H   0  0
    5.7930   -0.1900    0.0000 H   0  0
    7.1960   -2.6200    0.0000 H   0  0
    9.7940    2.1200    0.0000 H   0  0
    4.5980   -0.8800    0.0000 H   0  0
    3.3340   -2.4750    0.0000 H   0  0
    4.1310   -2.4750    0.0000 H   0  0
  1 11  1  0
  1 12  1  0
  2 29  2  0
  3  9  1  0
  3 10  1  0
  3 13  1  0
  4 16  1  0
  4 19  1  0
  4 44  1  0
  5 19  2  0
  5 21  1  0
  6 19  1  0
  6 28  2  0
  7 29  1  0
  7 30  1  0
  7 51  1  0
  8 31  3  0
  9 11  1  0
  9 32  1  0
  9 33  1  0
 10 12  1  0
 10 34  1  0
 10 35  1  0
 11 36  1  0
 11 37  1  0
 12 38  1  0
 12 39  1  0
 13 14  2  0
 13 15  1  0
 14 17  1  0
 14 40  1  0
 15 18  2  0
 15 41  1  0
 16 17  2  0
 16 18  1  0
 17 42  1  0
 18 43  1  0
 20 21  1  0
 20 22  2  0
 20 23  1  0
 21 25  2  0
 22 26  1  0
 22 45  1  0
 23 27  2  0
 23 46  1  0
 24 26  2  0
 24 27  1  0
 24 29  1  0
 25 28  1  0
 25 47  1  0
 26 48  1  0
 27 49  1  0
 28 50  1  0
 30 31  1  0
 30 52  1  0
 30 53  1  0
M  END
> <Name>
25062766

> <PUBCHEM_COMPOUND_CID>
25062766

> <Toxicity>
1

> <Data Set>
TrainingSet

$$$$
446596
  SciTegic12242523262D

 79 80  0  0  1  0            999 V2000
   12.8920    4.5390    0.0000 O   0  0
    9.7940    3.9050    0.0000 O   0  0
    9.7940    6.9050    0.0000 O   0  0
    8.0620    5.9050    0.0000 O   0  0
   15.9900    5.9050    0.0000 O   0  0
    6.3300    0.9050    0.0000 O   0  0
    8.0620    0.9050    0.0000 O   0  0
    2.0000   -6.5950    0.0000 O   0  0
    3.7320   -6.5950    0.0000 O   0  0
   12.3920    5.4050    0.0000 C   0  0  2  0  0  0
   13.3920    5.4050    0.0000 C   0  0  2  0  0  0
   11.5260    5.9050    0.0000 C   0  0
   10.6600    5.4050    0.0000 C   0  0  2  0  0  0
   14.2580    5.9050    0.0000 C   0  0  2  0  0  0
    9.7940    5.9050    0.0000 C   0  0  2  0  0  0
   10.6600    4.4050    0.0000 C   0  0
    8.9280    5.4050    0.0000 C   0  0  2  0  0  0
   15.1240    5.4050    0.0000 C   0  0  2  0  0  0
    8.9280    4.4050    0.0000 C   0  0  2  0  0  0
   14.2580    6.9050    0.0000 C   0  0
    8.0620    3.9050    0.0000 C   0  0
   15.1240    4.4050    0.0000 C   0  0
    8.0620    2.9050    0.0000 C   0  0
    8.9280    2.4050    0.0000 C   0  0
    7.1960    2.4050    0.0000 C   0  0
    7.1960    1.4050    0.0000 C   0  0
    6.3300   -0.0950    0.0000 C   0  0
    5.4640   -0.5950    0.0000 C   0  0
    5.4640   -1.5950    0.0000 C   0  0
    4.5980   -2.0950    0.0000 C   0  0
    4.5980   -3.0950    0.0000 C   0  0
    3.7320   -3.5950    0.0000 C   0  0
    3.7320   -4.5950    0.0000 C   0  0
    2.8660   -5.0950    0.0000 C   0  0
    2.8660   -6.0950    0.0000 C   0  0
   11.9540    4.9670    0.0000 H   0  0
   13.8310    4.9670    0.0000 H   0  0
   11.9250    6.3800    0.0000 H   0  0
   11.1280    6.3800    0.0000 H   0  0
   11.1970    5.0950    0.0000 H   0  0
   13.7210    6.2150    0.0000 H   0  0
   10.3310    6.2150    0.0000 H   0  0
   10.8720    3.8220    0.0000 H   0  0
   11.2710    4.5130    0.0000 H   0  0
    8.9280    6.0250    0.0000 H   0  0
   15.1240    6.0250    0.0000 H   0  0
    8.9280    3.7850    0.0000 H   0  0
   14.8780    6.9050    0.0000 H   0  0
   14.2580    7.5250    0.0000 H   0  0
   13.6380    6.9050    0.0000 H   0  0
    7.8500    4.4880    0.0000 H   0  0
    7.4520    3.7970    0.0000 H   0  0
   14.5040    4.4050    0.0000 H   0  0
   15.1240    3.7850    0.0000 H   0  0
   15.7440    4.4050    0.0000 H   0  0
    9.2570    7.2150    0.0000 H   0  0
    7.5250    5.5950    0.0000 H   0  0
   16.5270    5.5950    0.0000 H   0  0
    8.6180    1.8680    0.0000 H   0  0
    9.4650    2.0950    0.0000 H   0  0
    9.2380    2.9420    0.0000 H   0  0
    6.6590    2.7150    0.0000 H   0  0
    6.5420   -0.6780    0.0000 H   0  0
    6.9410    0.0130    0.0000 H   0  0
    5.2520   -0.0120    0.0000 H   0  0
    4.8540   -0.7030    0.0000 H   0  0
    5.6760   -2.1780    0.0000 H   0  0
    6.0750   -1.4870    0.0000 H   0  0
    4.3860   -1.5120    0.0000 H   0  0
    3.9880   -2.2030    0.0000 H   0  0
    4.8100   -3.6780    0.0000 H   0  0
    5.2090   -2.9870    0.0000 H   0  0
    3.5200   -3.0120    0.0000 H   0  0
    3.1220   -3.7030    0.0000 H   0  0
    3.9440   -5.1780    0.0000 H   0  0
    4.3430   -4.4870    0.0000 H   0  0
    2.6540   -4.5120    0.0000 H   0  0
    2.2550   -5.2030    0.0000 H   0  0
    2.0000   -7.2150    0.0000 H   0  0
  1 10  1  0
  1 11  1  0
  2 16  1  0
  2 19  1  0
 15  3  1  6
  3 56  1  0
 17  4  1  6
  4 57  1  0
 18  5  1  1
  5 58  1  0
  6 26  1  0
  6 27  1  0
  7 26  2  0
  8 35  1  0
  8 79  1  0
  9 35  2  0
 10 11  1  0
 10 12  1  1
 10 36  1  6
 11 14  1  0
 11 37  1  1
 13 12  1  1
 12 38  1  0
 12 39  1  0
 13 15  1  0
 13 16  1  0
 13 40  1  6
 14 18  1  0
 14 20  1  1
 14 41  1  6
 15 17  1  0
 15 42  1  1
 16 43  1  0
 16 44  1  0
 17 19  1  0
 17 45  1  1
 18 22  1  0
 18 46  1  6
 19 21  1  1
 19 47  1  6
 20 48  1  0
 20 49  1  0
 20 50  1  0
 21 23  1  0
 21 51  1  0
 21 52  1  0
 22 53  1  0
 22 54  1  0
 22 55  1  0
 23 24  1  0
 23 25  2  0
 24 59  1  0
 24 60  1  0
 24 61  1  0
 25 26  1  0
 25 62  1  0
 27 28  1  0
 27 63  1  0
 27 64  1  0
 28 29  1  0
 28 65  1  0
 28 66  1  0
 29 30  1  0
 29 67  1  0
 29 68  1  0
 30 31  1  0
 30 69  1  0
 30 70  1  0
 31 32  1  0
 31 71  1  0
 31 72  1  0
 32 33  1  0
 32 73  1  0
 32 74  1  0
 33 34  1  0
 33 75  1  0
 33 76  1  0
 34 35  1  0
 34 77  1  0
 34 78  1  0
M  END
> <Name>
446596

> <PUBCHEM_COMPOUND_CID>
446596

> <Toxicity>
0

> <Data Set>
TrainingSet

$$$$
446541
  SciTegic12242523262D

 43 44  0  0  0  0            999 V2000
   11.8610   -0.1550    0.0000 O   0  0
    7.7330   -1.1550    0.0000 O   0  0
    9.4650    1.8450    0.0000 O   0  0
   11.5880    1.6000    0.0000 O   0  0
    2.5370    0.8450    0.0000 O   0  0
    3.4030   -0.6550    0.0000 O   0  0
   10.3310   -0.6550    0.0000 C   0  0
    8.5990    0.3450    0.0000 C   0  0
   10.3310    0.3450    0.0000 C   0  0
    9.4650   -1.1550    0.0000 C   0  0
    8.5990   -0.6550    0.0000 C   0  0
    9.4650    0.8450    0.0000 C   0  0
    7.7330    0.8450    0.0000 C   0  0
   11.2770   -0.9600    0.0000 C   0  0
   11.2770    0.6500    0.0000 C   0  0
    6.8670    0.3450    0.0000 C   0  0
    9.4650   -2.1550    0.0000 C   0  0
    6.0010    0.8450    0.0000 C   0  0
    5.1350    0.3450    0.0000 C   0  0
    4.2690    0.8450    0.0000 C   0  0
    6.0010    1.8450    0.0000 C   0  0
    7.7330   -2.1550    0.0000 C   0  0
    3.4030    0.3450    0.0000 C   0  0
    8.1320    1.3200    0.0000 H   0  0
    7.3350    1.3200    0.0000 H   0  0
   11.0260   -1.5270    0.0000 H   0  0
   11.8150   -1.2690    0.0000 H   0  0
    6.8670   -0.2750    0.0000 H   0  0
    8.8450   -2.1550    0.0000 H   0  0
    9.4650   -2.7750    0.0000 H   0  0
   10.0850   -2.1550    0.0000 H   0  0
    4.7360   -0.1300    0.0000 H   0  0
    5.5340   -0.1300    0.0000 H   0  0
    4.6680    1.3200    0.0000 H   0  0
    3.8700    1.3200    0.0000 H   0  0
    6.6210    1.8450    0.0000 H   0  0
    6.0010    2.4650    0.0000 H   0  0
    5.3810    1.8450    0.0000 H   0  0
    8.9280    2.1550    0.0000 H   0  0
    7.1130   -2.1550    0.0000 H   0  0
    7.7330   -2.7750    0.0000 H   0  0
    8.3530   -2.1550    0.0000 H   0  0
    2.0000    0.5350    0.0000 H   0  0
  1 14  1  0
  1 15  1  0
  2 11  1  0
  2 22  1  0
  3 12  1  0
  3 39  1  0
  4 15  2  0
  5 23  1  0
  5 43  1  0
  6 23  2  0
  7  9  2  0
  7 10  1  0
  7 14  1  0
  8 11  1  0
  8 12  2  0
  8 13  1  0
  9 12  1  0
  9 15  1  0
 10 11  2  0
 10 17  1  0
 13 16  1  0
 13 24  1  0
 13 25  1  0
 14 26  1  0
 14 27  1  0
 16 18  2  0
 16 28  1  0
 17 29  1  0
 17 30  1  0
 17 31  1  0
 18 19  1  0
 18 21  1  0
 19 20  1  0
 19 32  1  0
 19 33  1  0
 20 23  1  0
 20 34  1  0
 20 35  1  0
 21 36  1  0
 21 37  1  0
 21 38  1  0
 22 40  1  0
 22 41  1  0
 22 42  1  0
M  END
> <Name>
446541

> <PUBCHEM_COMPOUND_CID>
446541

> <Toxicity>
1

> <Data Set>
TrainingSet

$$$$
39147
  SciTegic12242523262D

 49 50  0  0  1  0            999 V2000
    2.0000    1.4020    0.0000 O   0  0
    2.0000    3.4020    0.0000 O   0  0
    5.4800    0.3680    0.0000 O   0  0
    5.4570   -1.6320    0.0000 O   0  0
    7.1780   -2.6520    0.0000 N   0  0
    2.8660    1.9020    0.0000 C   0  0  2  0  0  0
    2.8660    2.9020    0.0000 C   0  0  1  0  0  0
    3.7320    1.4020    0.0000 C   0  0
    3.7320    3.4020    0.0000 C   0  0
    4.5980    1.9020    0.0000 C   0  0
    4.5980    2.9020    0.0000 C   0  0
    5.4920    1.3680    0.0000 C   0  0
    8.0380   -3.1620    0.0000 C   0  0
    5.4920    3.4370    0.0000 C   0  0
    6.3290   -1.1420    0.0000 C   0  0
    7.1890   -1.6520    0.0000 C   0  0
    6.3410   -0.1420    0.0000 C   0  0
    6.3980    1.8820    0.0000 C   0  0
    6.3980    2.9230    0.0000 C   0  0
    8.8980   -3.6720    0.0000 C   0  0
    7.5280   -4.0220    0.0000 C   0  0
    8.5480   -2.3020    0.0000 C   0  0
    2.8660    1.2820    0.0000 H   0  0
    2.8660    3.5220    0.0000 H   0  0
    3.3340    0.9270    0.0000 H   0  0
    4.1310    0.9270    0.0000 H   0  0
    4.1310    3.8770    0.0000 H   0  0
    3.3340    3.8770    0.0000 H   0  0
    5.4850    4.0570    0.0000 H   0  0
    5.7960   -0.8260    0.0000 H   0  0
    7.7990   -1.7670    0.0000 H   0  0
    7.4080   -1.0720    0.0000 H   0  0
    6.6370   -2.9560    0.0000 H   0  0
    6.9500   -0.2570    0.0000 H   0  0
    6.5590    0.4380    0.0000 H   0  0
    6.9340    1.5690    0.0000 H   0  0
    6.9340    3.2350    0.0000 H   0  0
    2.0000    0.7820    0.0000 H   0  0
    2.0000    4.0220    0.0000 H   0  0
    8.5820   -4.2050    0.0000 H   0  0
    9.4310   -3.9880    0.0000 H   0  0
    9.2140   -3.1390    0.0000 H   0  0
    6.9950   -3.7060    0.0000 H   0  0
    7.2120   -4.5560    0.0000 H   0  0
    8.0610   -4.3380    0.0000 H   0  0
    9.0810   -2.6180    0.0000 H   0  0
    8.8640   -1.7690    0.0000 H   0  0
    8.0150   -1.9860    0.0000 H   0  0
    5.4500   -2.2520    0.0000 H   0  0
  6  1  1  6
  1 38  1  0
  7  2  1  6
  2 39  1  0
  3 12  1  0
  3 17  1  0
  4 15  1  0
  4 49  1  0
  5 13  1  0
  5 16  1  0
  5 33  1  0
  6  7  1  0
  6  8  1  0
  6 23  1  1
  7  9  1  0
  7 24  1  1
  8 10  1  0
  8 25  1  0
  8 26  1  0
  9 11  1  0
  9 27  1  0
  9 28  1  0
 10 11  2  0
 10 12  1  0
 11 14  1  0
 12 18  2  0
 13 20  1  0
 13 21  1  0
 13 22  1  0
 14 19  2  0
 14 29  1  0
 15 16  1  0
 15 17  1  0
 15 30  1  0
 16 31  1  0
 16 32  1  0
 17 34  1  0
 17 35  1  0
 18 19  1  0
 18 36  1  0
 19 37  1  0
 20 40  1  0
 20 41  1  0
 20 42  1  0
 21 43  1  0
 21 44  1  0
 21 45  1  0
 22 46  1  0
 22 47  1  0
 22 48  1  0
M  END
> <Name>
39147

> <PUBCHEM_COMPOUND_CID>
39147

> <Toxicity>
1

> <Data Set>
TrainingSet

$$$$
8982
  SciTegic12242523262D

 51 54  0  0  1  0            999 V2000
    2.9950   -1.1360    0.0000 S   0  0
    6.3100   -0.6880    0.0000 O   0  0
    4.0420   -4.0120    0.0000 O   0  0
    5.5870   -3.2290    0.0000 O   0  0
    6.3300    1.0300    0.0000 O   0  0
    3.7320    2.5300    0.0000 O   0  0
    4.5920   -1.3930    0.0000 N   0  0
    4.5980    1.0300    0.0000 N   0  0
    3.8870   -0.6840    0.0000 C   0  0  1  0  0  0
    3.1490   -2.1240    0.0000 C   0  0
    4.1360   -2.2830    0.0000 C   0  0  2  0  0  0
    4.5980    0.0300    0.0000 C   0  0  1  0  0  0
    5.3100   -0.6840    0.0000 C   0  0
    2.1610   -2.2790    0.0000 C   0  0
    2.9910   -3.1120    0.0000 C   0  0
    4.5890   -3.1750    0.0000 C   0  0
    5.4640    1.5300    0.0000 C   0  0
    5.4640    2.5300    0.0000 C   0  0
    6.3300    3.0300    0.0000 C   0  0
    4.5980    3.0300    0.0000 C   0  0
    6.3300    4.0300    0.0000 C   0  0
    4.5980    4.0300    0.0000 C   0  0
    7.2240    2.4960    0.0000 C   0  0
    5.4640    4.5300    0.0000 C   0  0
    7.2240    4.5650    0.0000 C   0  0
    8.1300    3.0100    0.0000 C   0  0
    8.1300    4.0510    0.0000 C   0  0
    2.8660    3.0300    0.0000 C   0  0
    2.0000    2.5300    0.0000 C   0  0
    3.3870    0.0040    0.0000 H   0  0
    4.7560   -2.2840    0.0000 H   0  0
    5.1710    0.2670    0.0000 H   0  0
    2.0650   -1.6660    0.0000 H   0  0
    1.5480   -2.3740    0.0000 H   0  0
    2.2570   -2.8910    0.0000 H   0  0
    2.3780   -3.0130    0.0000 H   0  0
    2.8920   -3.7240    0.0000 H   0  0
    3.6030   -3.2100    0.0000 H   0  0
    4.0610    1.3400    0.0000 H   0  0
    4.3220   -4.5650    0.0000 H   0  0
    4.0610    4.3400    0.0000 H   0  0
    7.2170    1.8760    0.0000 H   0  0
    5.4640    5.1500    0.0000 H   0  0
    7.2170    5.1850    0.0000 H   0  0
    8.6660    2.6980    0.0000 H   0  0
    8.6660    4.3630    0.0000 H   0  0
    3.2650    3.5050    0.0000 H   0  0
    2.4680    3.5050    0.0000 H   0  0
    1.6900    3.0670    0.0000 H   0  0
    1.4630    2.2200    0.0000 H   0  0
    2.3100    1.9940    0.0000 H   0  0
  1  9  1  0
  1 10  1  0
  2 13  2  0
  3 16  1  0
  3 40  1  0
  4 16  2  0
  5 17  2  0
  6 20  1  0
  6 28  1  0
  7  9  1  0
  7 11  1  0
  7 13  1  0
 12  8  1  6
  8 17  1  0
  8 39  1  0
  9 12  1  0
  9 30  1  1
 10 11  1  0
 10 14  1  0
 10 15  1  0
 11 16  1  1
 11 31  1  6
 12 13  1  0
 12 32  1  1
 14 33  1  0
 14 34  1  0
 14 35  1  0
 15 36  1  0
 15 37  1  0
 15 38  1  0
 17 18  1  0
 18 19  2  0
 18 20  1  0
 19 21  1  0
 19 23  1  0
 20 22  2  0
 21 24  2  0
 21 25  1  0
 22 24  1  0
 22 41  1  0
 23 26  2  0
 23 42  1  0
 24 43  1  0
 25 27  2  0
 25 44  1  0
 26 27  1  0
 26 45  1  0
 27 46  1  0
 28 29  1  0
 28 47  1  0
 28 48  1  0
 29 49  1  0
 29 50  1  0
 29 51  1  0
M  END
> <Name>
8982

> <PUBCHEM_COMPOUND_CID>
8982

> <Toxicity>
0

> <Data Set>
TestSet

$$$$
5311304
  SciTegic12242523262D

 53 58  0  0  1  0            999 V2000
    2.2310    0.0530    0.0000 O   0  0
    5.1560   -1.7170    0.0000 O   0  0
    2.0000   -2.4020    0.0000 O   0  0
    2.0000    2.4020    0.0000 O   0  0
    6.1610   -0.9510    0.0000 N   0  0
    3.6900   -0.4760    0.0000 C   0  0  1  0  0  0
    4.5130   -0.9510    0.0000 C   0  0  1  0  0  0
    5.3370   -0.4760    0.0000 C   0  0  1  0  0  0
    2.8660   -0.9510    0.0000 C   0  0  2  0  0  0
    4.2390    0.2220    0.0000 C   0  0
    3.6900    0.4760    0.0000 C   0  0
    4.5130   -1.9020    0.0000 C   0  0
    2.8660   -1.9020    0.0000 C   0  0  2  0  0  0
    5.3370    0.4760    0.0000 C   0  0
    5.5920    0.2220    0.0000 C   0  0
    3.6900   -2.3780    0.0000 C   0  0
    4.5130    0.9510    0.0000 C   0  0
    2.8660    0.9510    0.0000 C   0  0
    6.8420   -1.6830    0.0000 C   0  0
    7.8160   -1.4590    0.0000 C   0  0
    4.5130    1.9020    0.0000 C   0  0
    8.6640   -1.9900    0.0000 C   0  0
    8.3470   -0.6120    0.0000 C   0  0
    2.8660    1.9020    0.0000 C   0  0
    9.1950   -1.1430    0.0000 C   0  0
    3.6900    2.3780    0.0000 C   0  0
    5.6280   -1.2740    0.0000 H   0  0
    2.0500   -1.1880    0.0000 H   0  0
    4.3760    0.8270    0.0000 H   0  0
    3.6800    0.4890    0.0000 H   0  0
    4.7250   -2.4850    0.0000 H   0  0
    5.1240   -1.7940    0.0000 H   0  0
    2.8660   -2.5220    0.0000 H   0  0
    5.9480    0.3680    0.0000 H   0  0
    5.5490    1.0580    0.0000 H   0  0
    6.1840    0.4060    0.0000 H   0  0
    5.4990    0.8350    0.0000 H   0  0
    3.2910   -2.8530    0.0000 H   0  0
    4.0880   -2.8530    0.0000 H   0  0
    6.3220   -2.0200    0.0000 H   0  0
    7.0830   -2.2540    0.0000 H   0  0
    5.2640   -2.3280    0.0000 H   0  0
    7.7130   -2.0710    0.0000 H   0  0
    5.0500    2.2120    0.0000 H   0  0
    8.3350   -2.5160    0.0000 H   0  0
    9.1890   -2.3190    0.0000 H   0  0
    8.6760   -0.0860    0.0000 H   0  0
    7.8220   -0.2830    0.0000 H   0  0
    9.7200   -1.4720    0.0000 H   0  0
    9.5240   -0.6170    0.0000 H   0  0
    2.0000   -3.0220    0.0000 H   0  0
    3.6900    2.9980    0.0000 H   0  0
    2.0000    3.0220    0.0000 H   0  0
  1  9  1  0
  1 18  1  0
  7  2  1  1
  2 42  1  0
 13  3  1  6
  3 51  1  0
  4 24  1  0
  4 53  1  0
  5  8  1  0
  5 15  1  0
  5 19  1  0
  6  7  1  0
  6  9  1  0
  6 10  1  1
  6 11  1  0
  7  8  1  0
  7 12  1  0
  8 14  1  0
  8 27  1  6
  9 13  1  0
  9 28  1  1
 10 15  1  0
 10 29  1  0
 10 30  1  0
 11 17  1  0
 11 18  2  0
 12 16  1  0
 12 31  1  0
 12 32  1  0
 13 16  1  0
 13 33  1  1
 14 17  1  0
 14 34  1  0
 14 35  1  0
 15 36  1  0
 15 37  1  0
 16 38  1  0
 16 39  1  0
 17 21  2  0
 18 24  1  0
 19 20  1  0
 19 40  1  0
 19 41  1  0
 20 22  1  0
 20 23  1  0
 20 43  1  0
 21 26  1  0
 21 44  1  0
 22 25  1  0
 22 45  1  0
 22 46  1  0
 23 25  1  0
 23 47  1  0
 23 48  1  0
 24 26  2  0
 25 49  1  0
 25 50  1  0
 26 52  1  0
M  END
> <Name>
5311304

> <PUBCHEM_COMPOUND_CID>
5311304

> <Toxicity>
0

> <Data Set>
TrainingSet

$$$$
5360515
  SciTegic12242523262D

 48 53  0  0  1  0            999 V2000
    2.2310   -0.2570    0.0000 O   0  0
    5.1560   -2.0270    0.0000 O   0  0
    2.0000   -2.7120    0.0000 O   0  0
    2.0000    2.0920    0.0000 O   0  0
    6.1610   -1.2610    0.0000 N   0  0
    3.6900   -0.7860    0.0000 C   0  0  1  0  0  0
    4.5130   -1.2610    0.0000 C   0  0  1  0  0  0
    5.3370   -0.7860    0.0000 C   0  0  1  0  0  0
    2.8660   -1.2610    0.0000 C   0  0  2  0  0  0
    4.2390   -0.0880    0.0000 C   0  0
    3.6900    0.1660    0.0000 C   0  0
    4.5130   -2.2120    0.0000 C   0  0
    5.5920   -0.0880    0.0000 C   0  0
    5.3370    0.1660    0.0000 C   0  0
    4.5130    0.6410    0.0000 C   0  0
    6.8420   -1.9930    0.0000 C   0  0
    3.6900   -2.6880    0.0000 C   0  0
    7.8160   -1.7690    0.0000 C   0  0
    2.8660   -2.2120    0.0000 C   0  0
    2.8660    0.6410    0.0000 C   0  0
    8.7720   -2.0630    0.0000 C   0  0
    8.5490   -1.0880    0.0000 C   0  0
    4.5130    1.5920    0.0000 C   0  0
    2.8660    1.5920    0.0000 C   0  0
    3.6900    2.0680    0.0000 C   0  0
    5.6280   -1.5840    0.0000 H   0  0
    2.0500   -1.4980    0.0000 H   0  0
    4.3760    0.5170    0.0000 H   0  0
    3.6800    0.1790    0.0000 H   0  0
    4.7250   -2.7950    0.0000 H   0  0
    5.1240   -2.1040    0.0000 H   0  0
    6.1840    0.0960    0.0000 H   0  0
    5.4990    0.5250    0.0000 H   0  0
    5.9480    0.0580    0.0000 H   0  0
    5.5490    0.7480    0.0000 H   0  0
    6.3220   -2.3300    0.0000 H   0  0
    7.0830   -2.5640    0.0000 H   0  0
    7.5260   -1.2220    0.0000 H   0  0
    3.2910   -3.1630    0.0000 H   0  0
    4.0880   -3.1630    0.0000 H   0  0
    8.6960   -2.6780    0.0000 H   0  0
    9.3920   -2.0310    0.0000 H   0  0
    9.1200   -0.8470    0.0000 H   0  0
    8.2120   -0.5680    0.0000 H   0  0
    5.2640   -2.6380    0.0000 H   0  0
    5.0500    1.9020    0.0000 H   0  0
    3.6900    2.6880    0.0000 H   0  0
    2.0000    2.7120    0.0000 H   0  0
  1  9  1  0
  1 20  1  0
  7  2  1  1
  2 45  1  0
  3 19  2  0
  4 24  1  0
  4 48  1  0
  5  8  1  0
  5 13  1  0
  5 16  1  0
  6  7  1  0
  6  9  1  0
  6 10  1  1
  6 11  1  0
  7  8  1  0
  7 12  1  0
  8 14  1  0
  8 26  1  6
  9 19  1  0
  9 27  1  1
 10 13  1  0
 10 28  1  0
 10 29  1  0
 11 15  1  0
 11 20  2  0
 12 17  1  0
 12 30  1  0
 12 31  1  0
 13 32  1  0
 13 33  1  0
 14 15  1  0
 14 34  1  0
 14 35  1  0
 15 23  2  0
 16 18  1  0
 16 36  1  0
 16 37  1  0
 17 19  1  0
 17 39  1  0
 17 40  1  0
 18 21  1  0
 18 22  1  0
 18 38  1  0
 20 24  1  0
 21 22  1  0
 21 41  1  0
 21 42  1  0
 22 43  1  0
 22 44  1  0
 23 25  1  0
 23 46  1  0
 24 25  2  0
 25 47  1  0
M  END
> <Name>
5360515

> <PUBCHEM_COMPOUND_CID>
5360515

> <Toxicity>
0

> <Data Set>
TrainingSet

$$$$
4449
  SciTegic12242523262D

 65 68  0  0  0  0            999 V2000
    2.0000   -6.1280    0.0000 Cl  0  0
    4.8260    3.5350    0.0000 O   0  0
    8.3550    5.0060    0.0000 O   0  0
    3.7320   -1.1280    0.0000 N   0  0
    3.7320   -3.1280    0.0000 N   0  0
    5.4640    1.8720    0.0000 N   0  0
    6.5470    3.0740    0.0000 N   0  0
    6.3780    1.4650    0.0000 N   0  0
    4.5980   -1.6280    0.0000 C   0  0
    2.8660   -1.6280    0.0000 C   0  0
    4.5980   -2.6280    0.0000 C   0  0
    2.8660   -2.6280    0.0000 C   0  0
    3.7320   -0.1280    0.0000 C   0  0
    4.5980    0.3720    0.0000 C   0  0
    4.5980    1.3720    0.0000 C   0  0
    3.7320   -4.1280    0.0000 C   0  0
    5.5690    2.8660    0.0000 C   0  0
    7.0470    2.2080    0.0000 C   0  0
    2.8660   -4.6280    0.0000 C   0  0
    4.5980   -4.6280    0.0000 C   0  0
    6.9540    3.9880    0.0000 C   0  0
    8.0410    2.1040    0.0000 C   0  0
    2.8660   -5.6280    0.0000 C   0  0
    4.5980   -5.6280    0.0000 C   0  0
    7.9480    4.0920    0.0000 C   0  0
    3.7320   -6.1280    0.0000 C   0  0
    8.4480    1.1900    0.0000 C   0  0
    9.3490    5.1100    0.0000 C   0  0
    9.7560    6.0240    0.0000 C   0  0
    9.9370    4.3010    0.0000 C   0  0
   10.7510    6.1280    0.0000 C   0  0
   10.9320    4.4060    0.0000 C   0  0
   11.3380    5.3190    0.0000 C   0  0
    5.2090   -1.7360    0.0000 H   0  0
    4.8100   -1.0460    0.0000 H   0  0
    2.6540   -1.0460    0.0000 H   0  0
    2.2550   -1.7360    0.0000 H   0  0
    4.8100   -3.2110    0.0000 H   0  0
    5.2090   -2.5210    0.0000 H   0  0
    2.2550   -2.5210    0.0000 H   0  0
    2.6540   -3.2110    0.0000 H   0  0
    3.5200    0.4540    0.0000 H   0  0
    3.1220   -0.2360    0.0000 H   0  0
    4.8100   -0.2110    0.0000 H   0  0
    5.2090    0.4790    0.0000 H   0  0
    4.3860    1.9540    0.0000 H   0  0
    3.9880    1.2640    0.0000 H   0  0
    2.3290   -4.3180    0.0000 H   0  0
    5.1350   -4.3180    0.0000 H   0  0
    6.9970    4.6060    0.0000 H   0  0
    6.3520    4.1380    0.0000 H   0  0
    8.6430    2.2540    0.0000 H   0  0
    7.9980    2.7220    0.0000 H   0  0
    5.1350   -5.9380    0.0000 H   0  0
    7.9050    3.4740    0.0000 H   0  0
    8.5500    3.9420    0.0000 H   0  0
    3.7320   -6.7480    0.0000 H   0  0
    7.8820    0.9380    0.0000 H   0  0
    8.7000    0.6240    0.0000 H   0  0
    9.0140    1.4420    0.0000 H   0  0
    9.3920    6.5250    0.0000 H   0  0
    9.6850    3.7350    0.0000 H   0  0
   11.0030    6.6950    0.0000 H   0  0
   11.2960    3.9040    0.0000 H   0  0
   11.9550    5.3840    0.0000 H   0  0
  1 23  1  0
  2 17  2  0
  3 25  1  0
  3 28  1  0
  4  9  1  0
  4 10  1  0
  4 13  1  0
  5 11  1  0
  5 12  1  0
  5 16  1  0
  6  8  1  0
  6 15  1  0
  6 17  1  0
  7 17  1  0
  7 18  1  0
  7 21  1  0
  8 18  2  0
  9 11  1  0
  9 34  1  0
  9 35  1  0
 10 12  1  0
 10 36  1  0
 10 37  1  0
 11 38  1  0
 11 39  1  0
 12 40  1  0
 12 41  1  0
 13 14  1  0
 13 42  1  0
 13 43  1  0
 14 15  1  0
 14 44  1  0
 14 45  1  0
 15 46  1  0
 15 47  1  0
 16 19  2  0
 16 20  1  0
 18 22  1  0
 19 23  1  0
 19 48  1  0
 20 24  2  0
 20 49  1  0
 21 25  1  0
 21 50  1  0
 21 51  1  0
 22 27  1  0
 22 52  1  0
 22 53  1  0
 23 26  2  0
 24 26  1  0
 24 54  1  0
 25 55  1  0
 25 56  1  0
 26 57  1  0
 27 58  1  0
 27 59  1  0
 27 60  1  0
 28 29  2  0
 28 30  1  0
 29 31  1  0
 29 61  1  0
 30 32  2  0
 30 62  1  0
 31 33  2  0
 31 63  1  0
 32 33  1  0
 32 64  1  0
 33 65  1  0
M  END
> <Name>
4449

> <PUBCHEM_COMPOUND_CID>
4449

> <Toxicity>
1

> <Data Set>
TrainingSet

$$$$
4463
  SciTegic12242523262D

 34 37  0  0  0  0            999 V2000
    5.8170    2.4790    0.0000 O   0  0
    4.8830   -0.6130    0.0000 N   0  0
    4.3830    1.5780    0.0000 N   0  0
    3.2300   -0.8990    0.0000 N   0  0
    6.5360   -0.8990    0.0000 N   0  0
    4.8830   -1.6130    0.0000 C   0  0
    4.3830   -2.4790    0.0000 C   0  0
    5.3830   -2.4790    0.0000 C   0  0
    3.9820   -0.1790    0.0000 C   0  0
    5.7840   -0.1790    0.0000 C   0  0
    3.7600    0.7960    0.0000 C   0  0
    6.0060    0.7960    0.0000 C   0  0
    2.7690    1.1180    0.0000 C   0  0
    5.3830    1.5780    0.0000 C   0  0
    6.9970    1.1180    0.0000 C   0  0
    2.0000    0.4160    0.0000 C   0  0
    2.2320   -0.6000    0.0000 C   0  0
    7.5340   -0.6000    0.0000 C   0  0
    2.5580    2.0960    0.0000 C   0  0
    7.7660    0.4160    0.0000 C   0  0
    4.2840   -1.4520    0.0000 H   0  0
    3.8000   -2.2670    0.0000 H   0  0
    4.2750   -3.0890    0.0000 H   0  0
    5.4910   -3.0890    0.0000 H   0  0
    5.9660   -2.2670    0.0000 H   0  0
    4.1140    2.1360    0.0000 H   0  0
    7.1280    1.7240    0.0000 H   0  0
    1.4080    0.6010    0.0000 H   0  0
    1.7790   -1.0230    0.0000 H   0  0
    7.9870   -1.0230    0.0000 H   0  0
    3.1640    2.2270    0.0000 H   0  0
    2.4270    2.7020    0.0000 H   0  0
    1.9520    1.9650    0.0000 H   0  0
    8.3580    0.6010    0.0000 H   0  0
  1 14  2  0
  2  6  1  0
  2  9  1  0
  2 10  1  0
  3 11  1  0
  3 14  1  0
  3 26  1  0
  4  9  1  0
  4 17  2  0
  5 10  1  0
  5 18  2  0
  6  7  1  0
  6  8  1  0
  6 21  1  0
  7  8  1  0
  7 22  1  0
  7 23  1  0
  8 24  1  0
  8 25  1  0
  9 11  2  0
 10 12  2  0
 11 13  1  0
 12 14  1  0
 12 15  1  0
 13 16  2  0
 13 19  1  0
 15 20  2  0
 15 27  1  0
 16 17  1  0
 16 28  1  0
 17 29  1  0
 18 20  1  0
 18 30  1  0
 19 31  1  0
 19 32  1  0
 19 33  1  0
 20 34  1  0
M  END
> <Name>
4463

> <PUBCHEM_COMPOUND_CID>
4463

> <Toxicity>
0

> <Data Set>
TrainingSet

$$$$
4474
  SciTegic12242523262D

 64 66  0  0  1  0            999 V2000
    8.0620   -1.1900    0.0000 O   0  0
   13.2580   -1.1900    0.0000 O   0  0
    8.9280    0.3100    0.0000 O   0  0
   12.3920    0.3100    0.0000 O   0  0
   12.3920    3.3100    0.0000 O   0  5
   13.2580    1.8100    0.0000 O   0  0
   10.6600   -2.6900    0.0000 N   0  0
    5.4640   -0.6900    0.0000 N   0  0
   12.3920    2.3100    0.0000 N   0  3
   10.6600   -0.6900    0.0000 C   0  0
    9.7940   -1.1900    0.0000 C   0  0
   11.5260   -1.1900    0.0000 C   0  0
   10.6600    0.3100    0.0000 C   0  0
    9.7940   -2.1900    0.0000 C   0  0
   11.5260   -2.1900    0.0000 C   0  0
    8.9280   -0.6900    0.0000 C   0  0
   11.5260    0.8100    0.0000 C   0  0
    9.7940    0.8100    0.0000 C   0  0
    8.9280   -2.6900    0.0000 C   0  0
   12.3920   -0.6900    0.0000 C   0  0
   12.3920   -2.6900    0.0000 C   0  0
    6.3300   -1.1900    0.0000 C   0  0
    7.1960   -0.6900    0.0000 C   0  0
   11.5260    1.8100    0.0000 C   0  0
    9.7940    1.8100    0.0000 C   0  0
    4.5980   -1.1900    0.0000 C   0  0
   10.6600    2.3100    0.0000 C   0  0
    3.7320   -0.6900    0.0000 C   0  0
    5.4640    0.3100    0.0000 C   0  0
    2.8660   -1.1900    0.0000 C   0  0
    3.7320    0.3100    0.0000 C   0  0
   14.1240   -0.6900    0.0000 C   0  0
    2.0000   -0.6900    0.0000 C   0  0
    2.8660    0.8100    0.0000 C   0  0
    2.0000    0.3100    0.0000 C   0  0
   11.3960   -0.2650    0.0000 H   0  0
   10.6600   -3.3100    0.0000 H   0  0
   12.0630    0.5000    0.0000 H   0  0
    9.2570    0.5000    0.0000 H   0  0
    8.6180   -2.1530    0.0000 H   0  0
    8.3910   -3.0000    0.0000 H   0  0
    9.2380   -3.2270    0.0000 H   0  0
   12.0820   -3.2270    0.0000 H   0  0
   12.9290   -3.0000    0.0000 H   0  0
   12.7020   -2.1530    0.0000 H   0  0
    5.9320   -1.6650    0.0000 H   0  0
    6.7290   -1.6650    0.0000 H   0  0
    7.5950   -0.2150    0.0000 H   0  0
    6.7980   -0.2150    0.0000 H   0  0
    9.2570    2.1200    0.0000 H   0  0
    4.2000   -1.6650    0.0000 H   0  0
    4.9970   -1.6650    0.0000 H   0  0
   10.6600    2.9300    0.0000 H   0  0
    6.0840    0.3100    0.0000 H   0  0
    5.4640    0.9300    0.0000 H   0  0
    4.8440    0.3100    0.0000 H   0  0
    2.8660   -1.8100    0.0000 H   0  0
    4.2690    0.6200    0.0000 H   0  0
   14.4340   -1.2270    0.0000 H   0  0
   14.6610   -0.3800    0.0000 H   0  0
   13.8140   -0.1530    0.0000 H   0  0
    1.4630   -1.0000    0.0000 H   0  0
    2.8660    1.4300    0.0000 H   0  0
    1.4630    0.6200    0.0000 H   0  0
  1 16  1  0
  1 23  1  0
  2 20  1  0
  2 32  1  0
  3 16  2  0
  4 20  2  0
  5  9  1  0
  6  9  2  0
  7 14  1  0
  7 15  1  0
  7 37  1  0
  8 22  1  0
  8 26  1  0
  8 29  1  0
  9 24  1  0
 10 11  1  0
 10 12  1  0
 10 13  1  0
 10 36  1  0
 11 14  2  0
 11 16  1  0
 12 15  2  0
 12 20  1  0
 13 17  2  0
 13 18  1  0
 14 19  1  0
 15 21  1  0
 17 24  1  0
 17 38  1  0
 18 25  2  0
 18 39  1  0
 19 40  1  0
 19 41  1  0
 19 42  1  0
 21 43  1  0
 21 44  1  0
 21 45  1  0
 22 23  1  0
 22 46  1  0
 22 47  1  0
 23 48  1  0
 23 49  1  0
 24 27  2  0
 25 27  1  0
 25 50  1  0
 26 28  1  0
 26 51  1  0
 26 52  1  0
 27 53  1  0
 28 30  2  0
 28 31  1  0
 29 54  1  0
 29 55  1  0
 29 56  1  0
 30 33  1  0
 30 57  1  0
 31 34  2  0
 31 58  1  0
 32 59  1  0
 32 60  1  0
 32 61  1  0
 33 35  2  0
 33 62  1  0
 34 35  1  0
 34 63  1  0
 35 64  1  0
M  CHG  2   5  -1   9   1
M  END
> <Name>
4474

> <PUBCHEM_COMPOUND_CID>
4474

> <Toxicity>
0

> <Data Set>
TrainingSet

$$$$
4485
  SciTegic12242523262D

 43 44  0  0  0  0            999 V2000
    2.8660   -0.6900    0.0000 O   0  0
    8.0620   -0.6900    0.0000 O   0  0
    3.7320    0.8100    0.0000 O   0  0
    7.1960    0.8100    0.0000 O   0  0
    7.1960    2.8100    0.0000 O   0  5
    8.0620    1.3100    0.0000 O   0  0
    5.4640   -2.1900    0.0000 N   0  0
    7.1960    1.8100    0.0000 N   0  3
    5.4640   -0.1900    0.0000 C   0  0
    4.5980   -0.6900    0.0000 C   0  0
    6.3300   -0.6900    0.0000 C   0  0
    5.4640    0.8100    0.0000 C   0  0
    4.5980   -1.6900    0.0000 C   0  0
    6.3300   -1.6900    0.0000 C   0  0
    6.3300    1.3100    0.0000 C   0  0
    4.5980    1.3100    0.0000 C   0  0
    3.7320   -0.1900    0.0000 C   0  0
    7.1960   -0.1900    0.0000 C   0  0
    3.7320   -2.1900    0.0000 C   0  0
    7.1960   -2.1900    0.0000 C   0  0
    6.3300    2.3100    0.0000 C   0  0
    4.5980    2.3100    0.0000 C   0  0
    5.4640    2.8100    0.0000 C   0  0
    2.0000   -0.1900    0.0000 C   0  0
    8.9280   -0.1900    0.0000 C   0  0
    6.0010    0.1200    0.0000 H   0  0
    5.4640   -2.8100    0.0000 H   0  0
    4.0610    1.0000    0.0000 H   0  0
    3.4220   -1.6530    0.0000 H   0  0
    3.1950   -2.5000    0.0000 H   0  0
    4.0420   -2.7270    0.0000 H   0  0
    6.8860   -2.7270    0.0000 H   0  0
    7.7330   -2.5000    0.0000 H   0  0
    7.5060   -1.6530    0.0000 H   0  0
    6.8670    2.6200    0.0000 H   0  0
    4.0610    2.6200    0.0000 H   0  0
    5.4640    3.4300    0.0000 H   0  0
    2.3100    0.3470    0.0000 H   0  0
    1.4630    0.1200    0.0000 H   0  0
    1.6900   -0.7270    0.0000 H   0  0
    9.2380   -0.7270    0.0000 H   0  0
    9.4650    0.1200    0.0000 H   0  0
    8.6180    0.3470    0.0000 H   0  0
  1 17  1  0
  1 24  1  0
  2 18  1  0
  2 25  1  0
  3 17  2  0
  4 18  2  0
  5  8  1  0
  6  8  2  0
  7 13  1  0
  7 14  1  0
  7 27  1  0
  8 15  1  0
  9 10  1  0
  9 11  1  0
  9 12  1  0
  9 26  1  0
 10 13  2  0
 10 17  1  0
 11 14  2  0
 11 18  1  0
 12 15  2  0
 12 16  1  0
 13 19  1  0
 14 20  1  0
 15 21  1  0
 16 22  2  0
 16 28  1  0
 19 29  1  0
 19 30  1  0
 19 31  1  0
 20 32  1  0
 20 33  1  0
 20 34  1  0
 21 23  2  0
 21 35  1  0
 22 23  1  0
 22 36  1  0
 23 37  1  0
 24 38  1  0
 24 39  1  0
 24 40  1  0
 25 41  1  0
 25 42  1  0
 25 43  1  0
M  CHG  2   5  -1   8   1
M  END
> <Name>
4485

> <PUBCHEM_COMPOUND_CID>
4485

> <Toxicity>
0

> <Data Set>
TrainingSet

$$$$
644241
  SciTegic12242523262D

 61 65  0  0  0  0            999 V2000
    2.0000    1.3260    0.0000 F   0  0
    3.3660    0.9600    0.0000 F   0  0
    2.3660    2.6920    0.0000 F   0  0
    5.4640    0.3260    0.0000 O   0  0
    4.5980    4.8260    0.0000 N   0  0
    6.3300    1.8260    0.0000 N   0  0
    8.0620   -2.1740    0.0000 N   0  0
    4.0980    6.3650    0.0000 N   0  0
    7.1960   -3.6740    0.0000 N   0  0
    6.3300   -2.1740    0.0000 N   0  0
    7.1960   -6.6740    0.0000 N   0  0
    4.5980    3.8260    0.0000 C   0  0
    5.4640    2.3260    0.0000 C   0  0
    3.7320    2.3260    0.0000 C   0  0
    5.4640    3.3260    0.0000 C   0  0
    3.7320    3.3260    0.0000 C   0  0
    4.5980    1.8260    0.0000 C   0  0
    7.1960    0.3260    0.0000 C   0  0
    8.0620   -1.1740    0.0000 C   0  0
    8.9280   -0.6740    0.0000 C   0  0
    7.1960   -0.6740    0.0000 C   0  0
    6.3300    0.8260    0.0000 C   0  0
    5.4070    5.4140    0.0000 C   0  0
    8.0620    0.8260    0.0000 C   0  0
    8.9280    0.3260    0.0000 C   0  0
    2.8660    1.8260    0.0000 C   0  0
    3.7890    5.4140    0.0000 C   0  0
    5.0980    6.3650    0.0000 C   0  0
    9.7940   -1.1740    0.0000 C   0  0
    7.1960   -2.6740    0.0000 C   0  0
    5.6860    7.1740    0.0000 C   0  0
    6.3300   -4.1740    0.0000 C   0  0
    6.3300   -5.1740    0.0000 C   0  0
    5.4640   -3.6740    0.0000 C   0  0
    5.4640   -2.6740    0.0000 C   0  0
    5.4640   -5.6740    0.0000 C   0  0
    7.1960   -5.6740    0.0000 C   0  0
    5.4640   -6.6740    0.0000 C   0  0
    6.3300   -7.1740    0.0000 C   0  0
    6.0010    3.6360    0.0000 H   0  0
    3.1950    3.6360    0.0000 H   0  0
    4.5980    1.2060    0.0000 H   0  0
    6.8670    2.1360    0.0000 H   0  0
    6.6590   -0.9840    0.0000 H   0  0
    5.9970    5.2220    0.0000 H   0  0
    8.0620    1.4460    0.0000 H   0  0
    9.4650    0.6360    0.0000 H   0  0
    3.1990    5.2220    0.0000 H   0  0
    8.5990   -2.4840    0.0000 H   0  0
    9.4840   -1.7110    0.0000 H   0  0
   10.3310   -1.4840    0.0000 H   0  0
   10.1040   -0.6370    0.0000 H   0  0
    6.1880    6.8100    0.0000 H   0  0
    6.0500    7.6760    0.0000 H   0  0
    5.1840    7.5380    0.0000 H   0  0
    4.9270   -3.9840    0.0000 H   0  0
    4.9270   -2.3640    0.0000 H   0  0
    4.9270   -5.3640    0.0000 H   0  0
    7.7330   -5.3640    0.0000 H   0  0
    4.9270   -6.9840    0.0000 H   0  0
    6.3300   -7.7940    0.0000 H   0  0
  1 26  1  0
  2 26  1  0
  3 26  1  0
  4 22  2  0
  5 12  1  0
  5 23  1  0
  5 27  1  0
  6 13  1  0
  6 22  1  0
  6 43  1  0
  7 19  1  0
  7 30  1  0
  7 49  1  0
  8 27  2  0
  8 28  1  0
  9 30  2  0
  9 32  1  0
 10 30  1  0
 10 35  2  0
 11 37  2  0
 11 39  1  0
 12 15  2  0
 12 16  1  0
 13 15  1  0
 13 17  2  0
 14 16  2  0
 14 17  1  0
 14 26  1  0
 15 40  1  0
 16 41  1  0
 17 42  1  0
 18 21  2  0
 18 22  1  0
 18 24  1  0
 19 20  2  0
 19 21  1  0
 20 25  1  0
 20 29  1  0
 21 44  1  0
 23 28  2  0
 23 45  1  0
 24 25  2  0
 24 46  1  0
 25 47  1  0
 27 48  1  0
 28 31  1  0
 29 50  1  0
 29 51  1  0
 29 52  1  0
 31 53  1  0
 31 54  1  0
 31 55  1  0
 32 33  1  0
 32 34  2  0
 33 36  2  0
 33 37  1  0
 34 35  1  0
 34 56  1  0
 35 57  1  0
 36 38  1  0
 36 58  1  0
 37 59  1  0
 38 39  2  0
 38 60  1  0
 39 61  1  0
M  END
> <Name>
644241

> <PUBCHEM_COMPOUND_CID>
644241

> <Toxicity>
1

> <Data Set>
TrainingSet

$$$$
4497
  SciTegic12242523262D

 56 57  0  0  1  0            999 V2000
    3.7320   -1.1900    0.0000 O   0  0
    8.9280   -1.1900    0.0000 O   0  0
    4.5980    0.3100    0.0000 O   0  0
    8.0620    0.3100    0.0000 O   0  0
   11.5260   -0.6900    0.0000 O   0  0
    8.0620    3.3100    0.0000 O   0  5
    8.9280    1.8100    0.0000 O   0  0
    6.3300   -2.6900    0.0000 N   0  0
    8.0620    2.3100    0.0000 N   0  3
    6.3300   -0.6900    0.0000 C   0  0
    5.4640   -1.1900    0.0000 C   0  0
    7.1960   -1.1900    0.0000 C   0  0
    6.3300    0.3100    0.0000 C   0  0
    5.4640   -2.1900    0.0000 C   0  0
    7.1960   -2.1900    0.0000 C   0  0
    4.5980   -0.6900    0.0000 C   0  0
    7.1960    0.8100    0.0000 C   0  0
    8.0620   -0.6900    0.0000 C   0  0
    5.4640    0.8100    0.0000 C   0  0
    4.5980   -2.6900    0.0000 C   0  0
    8.0620   -2.6900    0.0000 C   0  0
    7.1960    1.8100    0.0000 C   0  0
    5.4640    1.8100    0.0000 C   0  0
    2.8660   -0.6900    0.0000 C   0  0
    6.3300    2.3100    0.0000 C   0  0
    9.7940   -0.6900    0.0000 C   0  0
    2.0000   -1.1900    0.0000 C   0  0
    2.8660    0.3100    0.0000 C   0  0
   10.6600   -1.1900    0.0000 C   0  0
   12.3920   -1.1900    0.0000 C   0  0
    6.8670   -0.3800    0.0000 H   0  0
    6.3300   -3.3100    0.0000 H   0  0
    7.7330    0.5000    0.0000 H   0  0
    4.9270    0.5000    0.0000 H   0  0
    4.2880   -2.1530    0.0000 H   0  0
    4.0610   -3.0000    0.0000 H   0  0
    4.9080   -3.2270    0.0000 H   0  0
    7.7520   -3.2270    0.0000 H   0  0
    8.5990   -3.0000    0.0000 H   0  0
    8.3720   -2.1530    0.0000 H   0  0
    4.9270    2.1200    0.0000 H   0  0
    3.4030   -0.3800    0.0000 H   0  0
    6.3300    2.9300    0.0000 H   0  0
   10.1930   -0.2150    0.0000 H   0  0
    9.3960   -0.2150    0.0000 H   0  0
    1.6900   -0.6530    0.0000 H   0  0
    1.4630   -1.5000    0.0000 H   0  0
    2.3100   -1.7270    0.0000 H   0  0
    3.4860    0.3100    0.0000 H   0  0
    2.8660    0.9300    0.0000 H   0  0
    2.2460    0.3100    0.0000 H   0  0
   10.2620   -1.6650    0.0000 H   0  0
   11.0590   -1.6650    0.0000 H   0  0
   12.0820   -1.7270    0.0000 H   0  0
   12.9290   -1.5000    0.0000 H   0  0
   12.7020   -0.6530    0.0000 H   0  0
  1 16  1  0
  1 24  1  0
  2 18  1  0
  2 26  1  0
  3 16  2  0
  4 18  2  0
  5 29  1  0
  5 30  1  0
  6  9  1  0
  7  9  2  0
  8 14  1  0
  8 15  1  0
  8 32  1  0
  9 22  1  0
 10 11  1  0
 10 12  1  0
 10 13  1  0
 10 31  1  0
 11 14  2  0
 11 16  1  0
 12 15  2  0
 12 18  1  0
 13 17  2  0
 13 19  1  0
 14 20  1  0
 15 21  1  0
 17 22  1  0
 17 33  1  0
 19 23  2  0
 19 34  1  0
 20 35  1  0
 20 36  1  0
 20 37  1  0
 21 38  1  0
 21 39  1  0
 21 40  1  0
 22 25  2  0
 23 25  1  0
 23 41  1  0
 24 27  1  0
 24 28  1  0
 24 42  1  0
 25 43  1  0
 26 29  1  0
 26 44  1  0
 26 45  1  0
 27 46  1  0
 27 47  1  0
 27 48  1  0
 28 49  1  0
 28 50  1  0
 28 51  1  0
 29 52  1  0
 29 53  1  0
 30 54  1  0
 30 55  1  0
 30 56  1  0
M  CHG  2   6  -1   9   1
M  END
> <Name>
4497

> <PUBCHEM_COMPOUND_CID>
4497

> <Toxicity>
0

> <Data Set>
TrainingSet

$$$$
4506
  SciTegic12242523262D

 32 34  0  0  0  0            999 V2000
    2.0000   -2.8430    0.0000 O   0  0
    7.9120   -0.6330    0.0000 O   0  5
    7.0400    0.8640    0.0000 O   0  0
    3.5980   -2.2840    0.0000 N   0  0
    2.6240   -0.2590    0.0000 N   0  0
    7.0440   -0.1360    0.0000 N   0  3
    4.3800   -0.6600    0.0000 C   0  0
    4.3800   -1.6600    0.0000 C   0  0
    3.5980   -0.0370    0.0000 C   0  0
    3.8210    0.9380    0.0000 C   0  0
    5.2740   -0.1260    0.0000 C   0  0
    5.2740   -2.1950    0.0000 C   0  0
    2.1900   -1.1600    0.0000 C   0  0
    6.1800   -0.6390    0.0000 C   0  0
    2.6240   -2.0610    0.0000 C   0  0
    6.1800   -1.6810    0.0000 C   0  0
    3.0880    1.6180    0.0000 C   0  0
    4.7760    1.2330    0.0000 C   0  0
    3.3100    2.5930    0.0000 C   0  0
    4.9990    2.2080    0.0000 C   0  0
    4.2660    2.8880    0.0000 C   0  0
    5.2670    0.4940    0.0000 H   0  0
    3.7360   -2.8880    0.0000 H   0  0
    5.2670   -2.8150    0.0000 H   0  0
    1.7050   -0.7740    0.0000 H   0  0
    1.7050   -1.5470    0.0000 H   0  0
    6.7160   -1.9930    0.0000 H   0  0
    2.4950    1.4360    0.0000 H   0  0
    5.2310    0.8110    0.0000 H   0  0
    2.8560    3.0150    0.0000 H   0  0
    5.5920    2.3910    0.0000 H   0  0
    4.4040    3.4930    0.0000 H   0  0
  1 15  2  0
  2  6  1  0
  3  6  2  0
  4  8  1  0
  4 15  1  0
  4 23  1  0
  5  9  2  0
  5 13  1  0
  6 14  1  0
  7  8  2  0
  7  9  1  0
  7 11  1  0
  8 12  1  0
  9 10  1  0
 10 17  2  0
 10 18  1  0
 11 14  2  0
 11 22  1  0
 12 16  2  0
 12 24  1  0
 13 15  1  0
 13 25  1  0
 13 26  1  0
 14 16  1  0
 16 27  1  0
 17 19  1  0
 17 28  1  0
 18 20  2  0
 18 29  1  0
 19 21  2  0
 19 30  1  0
 20 21  1  0
 20 31  1  0
 21 32  1  0
M  CHG  2   2  -1   6   1
M  END
> <Name>
4506

> <PUBCHEM_COMPOUND_CID>
4506

> <Toxicity>
0

> <Data Set>
TrainingSet

$$$$
6604200
  SciTegic12242523262D

 23 24  0  0  0  0            999 V2000
    3.2730    1.3810    0.0000 O   0  0
    3.8610   -4.0550    0.0000 O   0  0
    6.7080   -1.9860    0.0000 O   0  0
    3.4010    4.0550    0.0000 O   0  5
    2.0000    3.0370    0.0000 O   0  0
    4.9480   -1.7070    0.0000 N   0  0
    5.4480   -3.2460    0.0000 N   0  0
    4.9480   -0.7070    0.0000 N   0  0
    2.9940    3.1410    0.0000 N   0  3
    4.1390   -2.2950    0.0000 C   0  0
    4.4480   -3.2460    0.0000 C   0  0
    5.7570   -2.2950    0.0000 C   0  0
    4.0820    0.7930    0.0000 C   0  0
    4.0820   -0.2070    0.0000 C   0  0
    4.8910    1.3810    0.0000 C   0  0
    3.5820    2.3320    0.0000 C   0  0
    4.5820    2.3320    0.0000 C   0  0
    3.8290   -1.7580    0.0000 H   0  0
    3.5730   -2.5470    0.0000 H   0  0
    5.8130   -3.7470    0.0000 H   0  0
    3.5450   -0.5170    0.0000 H   0  0
    5.4810    1.1890    0.0000 H   0  0
    4.9470    2.8340    0.0000 H   0  0
  1 13  1  0
  1 16  1  0
  2 11  2  0
  3 12  2  0
  4  9  1  0
  5  9  2  0
  6  8  1  0
  6 10  1  0
  6 12  1  0
  7 11  1  0
  7 12  1  0
  7 20  1  0
  8 14  2  0
  9 16  1  0
 10 11  1  0
 10 18  1  0
 10 19  1  0
 13 14  1  0
 13 15  2  0
 14 21  1  0
 15 17  1  0
 15 22  1  0
 16 17  2  0
 17 23  1  0
M  CHG  2   4  -1   9   1
M  END
> <Name>
6604200

> <PUBCHEM_COMPOUND_CID>
6604200

> <Toxicity>
0

> <Data Set>
TrainingSet

$$$$
3033637
  SciTegic12242523262D

 42 42  0  0  0  0            999 V2000
    8.0340   -0.7100    0.0000 S   0  0
   11.0370   -0.1190    0.0000 S   0  0
    2.0000    0.0620    0.0000 O   0  5
    3.1590    1.3490    0.0000 O   0  0
   13.0400   -0.7100    0.0000 N   0  0
   10.5370   -1.6580    0.0000 N   0  0
    5.3880   -0.6590    0.0000 N   0  0
    4.8530    0.9890    0.0000 N   0  0
    2.9510    0.3700    0.0000 N   0  3
   12.2970   -1.3790    0.0000 C   0  0
   11.3460   -1.0700    0.0000 C   0  0
    7.0830   -1.0190    0.0000 C   0  0
    9.7280   -1.0700    0.0000 C   0  0
    8.7770   -1.3790    0.0000 C   0  0
    6.3400   -0.3500    0.0000 C   0  0
   10.0370   -0.1190    0.0000 C   0  0
   13.9910   -1.0190    0.0000 C   0  0
   12.8320    0.2680    0.0000 C   0  0
    4.6450    0.0100    0.0000 C   0  0
    3.6940   -0.2990    0.0000 C   0  0
    4.1100    1.6580    0.0000 C   0  0
   12.0060   -1.9260    0.0000 H   0  0
   12.7860   -1.7610    0.0000 H   0  0
    6.5940   -1.4000    0.0000 H   0  0
    7.3740   -1.5660    0.0000 H   0  0
    6.8280    0.0320    0.0000 H   0  0
    6.0480    0.1980    0.0000 H   0  0
    8.2880   -1.7610    0.0000 H   0  0
    9.0680   -1.9260    0.0000 H   0  0
    9.6720    0.3830    0.0000 H   0  0
    5.2600   -1.2650    0.0000 H   0  0
   13.8000   -1.6080    0.0000 H   0  0
   14.5810   -1.2100    0.0000 H   0  0
   14.1830   -0.4290    0.0000 H   0  0
   13.4390    0.3970    0.0000 H   0  0
   12.7030    0.8750    0.0000 H   0  0
   12.2260    0.1390    0.0000 H   0  0
    5.4430    1.1800    0.0000 H   0  0
    3.5650   -0.9050    0.0000 H   0  0
    4.5250    2.1180    0.0000 H   0  0
    3.6490    2.0730    0.0000 H   0  0
    3.6950    1.1970    0.0000 H   0  0
  1 12  1  0
  1 14  1  0
  2 11  1  0
  2 16  1  0
  3  9  1  0
  4  9  2  0
  5 10  1  0
  5 17  1  0
  5 18  1  0
  6 11  2  0
  6 13  1  0
  7 15  1  0
  7 19  1  0
  7 31  1  0
  8 19  1  0
  8 21  1  0
  8 38  1  0
  9 20  1  0
 10 11  1  0
 10 22  1  0
 10 23  1  0
 12 15  1  0
 12 24  1  0
 12 25  1  0
 13 14  1  0
 13 16  2  0
 14 28  1  0
 14 29  1  0
 15 26  1  0
 15 27  1  0
 16 30  1  0
 17 32  1  0
 17 33  1  0
 17 34  1  0
 18 35  1  0
 18 36  1  0
 18 37  1  0
 19 20  2  0
 20 39  1  0
 21 40  1  0
 21 41  1  0
 21 42  1  0
M  CHG  2   3  -1   9   1
M  END
> <Name>
3033637

> <PUBCHEM_COMPOUND_CID>
3033637

> <Toxicity>
0

> <Data Set>
TrainingSet

$$$$
4543
  SciTegic12242523262D

 41 43  0  0  0  0            999 V2000
    3.1510   -2.0950    0.0000 N   0  0
    5.3830    3.0950    0.0000 C   0  0
    4.3830    3.0950    0.0000 C   0  0
    6.0060    2.3140    0.0000 C   0  0
    3.7600    2.3140    0.0000 C   0  0
    4.8830    0.9050    0.0000 C   0  0
    5.7840    1.3390    0.0000 C   0  0
    3.9820    1.3390    0.0000 C   0  0
    4.8830   -0.0950    0.0000 C   0  0
    6.9970    2.6360    0.0000 C   0  0
    2.7690    2.6360    0.0000 C   0  0
    6.5360    0.6180    0.0000 C   0  0
    3.2300    0.6180    0.0000 C   0  0
    4.0170   -0.5950    0.0000 C   0  0
    7.7660    1.9330    0.0000 C   0  0
    2.0000    1.9330    0.0000 C   0  0
    4.0170   -1.5950    0.0000 C   0  0
    7.5340    0.9180    0.0000 C   0  0
    2.2320    0.9180    0.0000 C   0  0
    3.1510   -3.0950    0.0000 C   0  0
    5.9420    3.3640    0.0000 H   0  0
    5.2450    3.7000    0.0000 H   0  0
    4.5210    3.7000    0.0000 H   0  0
    3.8240    3.3640    0.0000 H   0  0
    5.4200   -0.4050    0.0000 H   0  0
    7.1280    3.2420    0.0000 H   0  0
    2.6380    3.2420    0.0000 H   0  0
    6.3920    0.0160    0.0000 H   0  0
    3.3740    0.0160    0.0000 H   0  0
    3.8050   -0.0130    0.0000 H   0  0
    3.4060   -0.7030    0.0000 H   0  0
    4.2290   -2.1780    0.0000 H   0  0
    4.6280   -1.4880    0.0000 H   0  0
    8.3580    2.1180    0.0000 H   0  0
    1.4080    2.1180    0.0000 H   0  0
    7.9870    0.4940    0.0000 H   0  0
    1.7790    0.4940    0.0000 H   0  0
    2.6140   -1.7850    0.0000 H   0  0
    2.5310   -3.0950    0.0000 H   0  0
    3.1510   -3.7150    0.0000 H   0  0
    3.7710   -3.0950    0.0000 H   0  0
  1 17  1  0
  1 20  1  0
  1 38  1  0
  2  3  1  0
  2  4  1  0
  2 21  1  0
  2 22  1  0
  3  5  1  0
  3 23  1  0
  3 24  1  0
  4  7  1  0
  4 10  2  0
  5  8  1  0
  5 11  2  0
  6  7  1  0
  6  8  1  0
  6  9  2  0
  7 12  2  0
  8 13  2  0
  9 14  1  0
  9 25  1  0
 10 15  1  0
 10 26  1  0
 11 16  1  0
 11 27  1  0
 12 18  1  0
 12 28  1  0
 13 19  1  0
 13 29  1  0
 14 17  1  0
 14 30  1  0
 14 31  1  0
 15 18  2  0
 15 34  1  0
 16 19  2  0
 16 35  1  0
 17 32  1  0
 17 33  1  0
 18 36  1  0
 19 37  1  0
 20 39  1  0
 20 40  1  0
 20 41  1  0
M  END
> <Name>
4543

> <PUBCHEM_COMPOUND_CID>
4543

> <Toxicity>
0

> <Data Set>
TrainingSet

$$$$
11953884
  SciTegic12242523262D

140141  0  0  1  0            999 V2000
    4.2690   -3.9050    0.0000 O   0  0
    6.0010   -3.9050    0.0000 O   0  0
    6.0010   -5.9050    0.0000 O   0  0
    2.5370   -5.9050    0.0000 O   0  0
    4.2690   -0.9050    0.0000 O   0  0
    6.2240   -2.1710    0.0000 O   0  0
    9.4650    5.0950    0.0000 O   0  0
    7.5990    0.5950    0.0000 O   0  0
   10.3310    0.5950    0.0000 O   0  0
    8.5990    3.5950    0.0000 O   0  0
    4.5010   -0.0390    0.0000 O   0  0
    6.0010    5.0950    0.0000 O   0  0
   12.0630    3.5950    0.0000 O   0  0
    6.0010    0.8270    0.0000 O   0  0
    9.4650   -1.9050    0.0000 O   0  0
    6.8670    6.5950    0.0000 O   0  0
   10.3310    6.5950    0.0000 O   0  0
    4.2690   -6.9050    0.0000 N   0  0
    4.2690   -5.9050    0.0000 C   0  0  2  0  0  0
    5.1350   -5.4050    0.0000 C   0  0  1  0  0  0
    3.4030   -5.4050    0.0000 C   0  0  1  0  0  0
    5.1350   -4.4050    0.0000 C   0  0
    3.4030   -4.4050    0.0000 C   0  0  1  0  0  0
    6.0010   -2.9050    0.0000 C   0  0
    5.1350   -2.4050    0.0000 C   0  0
    5.1350   -1.4050    0.0000 C   0  0
    6.0010   -0.9050    0.0000 C   0  0
    2.5370   -3.9050    0.0000 C   0  0
    6.8670   -1.4050    0.0000 C   0  0
    7.7330   -0.9050    0.0000 C   0  0
    6.8670   -2.4050    0.0000 C   0  0
    8.5990    0.5950    0.0000 C   0  0
    9.4650    0.0950    0.0000 C   0  0
    8.5990    1.5950    0.0000 C   0  0
    7.7330    2.0950    0.0000 C   0  0
    7.7330    3.0950    0.0000 C   0  0
    9.4650   -0.9050    0.0000 C   0  0
   10.3310    3.5950    0.0000 C   0  0
    6.8670    3.5950    0.0000 C   0  0
    5.5010   -0.0390    0.0000 C   0  0
    8.5990   -1.4050    0.0000 C   0  0
    6.8670    4.5950    0.0000 C   0  0
   11.1970    3.0950    0.0000 C   0  0
   10.3310    4.5950    0.0000 C   0  0
    7.7330    5.0950    0.0000 C   0  0
   11.1970    2.0950    0.0000 C   0  0
    7.7330    6.0950    0.0000 C   0  0
    9.4650    3.0950    0.0000 C   0  0
    7.7330   -2.9050    0.0000 C   0  0
    8.5990    6.5950    0.0000 C   0  0
   11.1970    5.0950    0.0000 C   0  0
   10.3310    1.5950    0.0000 C   0  0
    9.4650    6.0950    0.0000 C   0  0
   12.0630    1.5950    0.0000 C   0  0
    8.5990   -2.4050    0.0000 C   0  0
   12.0630    0.5950    0.0000 C   0  0
    9.4650   -2.9050    0.0000 C   0  0
   12.9290    0.0950    0.0000 C   0  0
   10.3310   -2.4050    0.0000 C   0  0
   12.9290   -0.9050    0.0000 C   0  0
   13.7950   -1.4050    0.0000 C   0  0
   11.1970   -2.9050    0.0000 C   0  0
   13.7950   -2.4050    0.0000 C   0  0
   12.0630   -2.4050    0.0000 C   0  0
   12.9290   -2.9050    0.0000 C   0  0
    3.7320   -6.2150    0.0000 H   0  0
    5.1350   -6.0250    0.0000 H   0  0
    3.4030   -6.0250    0.0000 H   0  0
    5.6720   -4.7150    0.0000 H   0  0
    3.4030   -3.7850    0.0000 H   0  0
    6.5380   -3.2150    0.0000 H   0  0
    4.5240   -2.2970    0.0000 H   0  0
    4.9230   -2.9880    0.0000 H   0  0
    5.1350   -0.7850    0.0000 H   0  0
    6.4390   -0.4670    0.0000 H   0  0
    2.8470   -3.3680    0.0000 H   0  0
    2.0000   -3.5950    0.0000 H   0  0
    2.2270   -4.4420    0.0000 H   0  0
    3.7320   -7.2150    0.0000 H   0  0
    4.8060   -7.2150    0.0000 H   0  0
    7.2660   -1.8800    0.0000 H   0  0
    6.5380   -5.5950    0.0000 H   0  0
    2.0000   -5.5950    0.0000 H   0  0
    8.1320   -0.4300    0.0000 H   0  0
    7.3350   -0.4300    0.0000 H   0  0
    7.2660   -1.9300    0.0000 H   0  0
    8.4390   -0.0040    0.0000 H   0  0
   10.0020   -0.2150    0.0000 H   0  0
    9.2100    1.4870    0.0000 H   0  0
    8.8110    2.1780    0.0000 H   0  0
    7.1220    2.2030    0.0000 H   0  0
    7.5210    1.5120    0.0000 H   0  0
    7.7330    3.7150    0.0000 H   0  0
    9.7940    3.9050    0.0000 H   0  0
    9.6770   -1.4880    0.0000 H   0  0
   10.0760   -0.7970    0.0000 H   0  0
    6.2560    3.7030    0.0000 H   0  0
    6.6550    3.0120    0.0000 H   0  0
    6.8670    5.2150    0.0000 H   0  0
   11.1970    3.7150    0.0000 H   0  0
   10.3310    5.2150    0.0000 H   0  0
    7.9450    4.5120    0.0000 H   0  0
    8.3440    5.2030    0.0000 H   0  0
    3.7320   -1.2150    0.0000 H   0  0
   10.6600    2.4050    0.0000 H   0  0
    7.1960    5.7850    0.0000 H   0  0
    5.7490   -1.7720    0.0000 H   0  0
    9.1550    3.6320    0.0000 H   0  0
    8.9280    2.7850    0.0000 H   0  0
    9.7750    2.5580    0.0000 H   0  0
    7.7330   -3.5250    0.0000 H   0  0
    8.9980    7.0700    0.0000 H   0  0
    8.2010    7.0700    0.0000 H   0  0
   11.5070    4.5580    0.0000 H   0  0
   11.7340    5.4050    0.0000 H   0  0
   10.8870    5.6320    0.0000 H   0  0
   10.0210    2.1320    0.0000 H   0  0
    9.7940    1.2850    0.0000 H   0  0
   10.6410    1.0580    0.0000 H   0  0
    7.2890    1.1320    0.0000 H   0  0
   10.8680    0.2850    0.0000 H   0  0
    8.5990    4.2150    0.0000 H   0  0
   12.6000    1.9050    0.0000 H   0  0
    4.1910    0.4980    0.0000 H   0  0
    5.4640    4.7850    0.0000 H   0  0
   12.6000    3.2850    0.0000 H   0  0
    8.2010   -1.9300    0.0000 H   0  0
    6.8670    7.2150    0.0000 H   0  0
   11.5260    0.2850    0.0000 H   0  0
    9.4650   -3.5250    0.0000 H   0  0
   13.4660    0.4050    0.0000 H   0  0
   10.3310   -1.7850    0.0000 H   0  0
   12.3920   -1.2150    0.0000 H   0  0
   14.4060   -1.5130    0.0000 H   0  0
   14.0070   -0.8220    0.0000 H   0  0
   11.1970   -3.5250    0.0000 H   0  0
   14.0070   -2.9880    0.0000 H   0  0
   14.4060   -2.2970    0.0000 H   0  0
   12.0630   -1.7850    0.0000 H   0  0
   12.9290   -3.5250    0.0000 H   0  0
  1 22  1  0
  1 23  1  0
  2 22  1  0
  2 24  1  0
 20  3  1  1
  3 82  1  0
 21  4  1  6
  4 83  1  0
  5 26  1  0
  5104  1  0
  6 29  1  0
  6107  1  0
  7 44  1  0
  7 53  1  0
  8 32  1  0
  8120  1  0
  9 33  1  0
  9121  1  0
 10 36  1  0
 10122  1  0
 11 40  1  0
 11124  1  0
 12 42  1  0
 12125  1  0
 13 43  1  0
 13126  1  0
 14 40  2  0
 15 41  2  0
 16 47  1  0
 16128  1  0
 17 53  2  0
 19 18  1  1
 18 79  1  0
 18 80  1  0
 19 20  1  0
 19 21  1  0
 19 66  1  6
 20 22  1  0
 20 67  1  6
 21 23  1  0
 21 68  1  1
 22 69  1  0
 23 28  1  1
 23 70  1  6
 24 25  1  0
 24 31  1  0
 24 71  1  0
 25 26  1  0
 25 72  1  0
 25 73  1  0
 26 27  1  0
 26 74  1  0
 27 29  1  0
 27 40  1  0
 27 75  1  0
 28 76  1  0
 28 77  1  0
 28 78  1  0
 29 30  1  0
 29 81  1  0
 30 41  1  0
 30 84  1  0
 30 85  1  0
 31 49  2  0
 31 86  1  0
 32 33  1  0
 32 34  1  0
 32 87  1  0
 33 37  1  0
 33 88  1  0
 34 35  1  0
 34 89  1  0
 34 90  1  0
 35 36  1  0
 35 91  1  0
 35 92  1  0
 36 39  1  0
 36 93  1  0
 37 41  1  0
 37 95  1  0
 37 96  1  0
 38 43  1  0
 38 44  1  0
 38 48  1  0
 38 94  1  0
 39 42  1  0
 39 97  1  0
 39 98  1  0
 42 45  1  0
 42 99  1  0
 43 46  1  0
 43100  1  0
 44 51  1  0
 44101  1  0
 45 47  1  0
 45102  1  0
 45103  1  0
 46 52  1  0
 46 54  1  0
 46105  1  0
 47 50  1  0
 47106  1  0
 48108  1  0
 48109  1  0
 48110  1  0
 49 55  1  0
 49111  1  0
 50 53  1  0
 50112  1  0
 50113  1  0
 51114  1  0
 51115  1  0
 51116  1  0
 52117  1  0
 52118  1  0
 52119  1  0
 54 56  2  0
 54123  1  0
 55 57  2  0
 55127  1  0
 56 58  1  0
 56129  1  0
 57 59  1  0
 57130  1  0
 58 60  2  0
 58131  1  0
 59 62  2  0
 59132  1  0
 60 61  1  0
 60133  1  0
 61 63  1  0
 61134  1  0
 61135  1  0
 62 64  1  0
 62136  1  0
 63 65  1  0
 63137  1  0
 63138  1  0
 64 65  2  0
 64139  1  0
 65140  1  0
M  END
> <Name>
11953884

> <PUBCHEM_COMPOUND_CID>
11953884

> <Toxicity>
0

> <Data Set>
TrainingSet

$$$$
135398745
  SciTegic12242523262D

 42 45  0  0  0  0            999 V2000
    3.7230   -2.6610    0.0000 S   0  0
    4.5450    0.5040    0.0000 N   0  0
    3.6770    2.3060    0.0000 N   0  0
    5.9790   -0.3970    0.0000 N   0  0
    5.4790   -2.5870    0.0000 N   0  0
    5.1080    1.3310    0.0000 C   0  0
    3.5480    0.5790    0.0000 C   0  0
    4.6740    2.2320    0.0000 C   0  0
    3.1140    1.4800    0.0000 C   0  0
    4.9790   -0.3970    0.0000 C   0  0
    4.3550   -1.1780    0.0000 C   0  0
    3.2430    3.2070    0.0000 C   0  0
    4.5780   -2.1530    0.0000 C   0  0
    3.3650   -1.0920    0.0000 C   0  0
    6.6020   -1.1780    0.0000 C   0  0
    6.3800   -2.1530    0.0000 C   0  0
    2.9750   -2.0060    0.0000 C   0  0
    7.5930   -0.8560    0.0000 C   0  0
    7.1320   -2.8740    0.0000 C   0  0
    2.0000   -2.2290    0.0000 C   0  0
    8.3620   -1.5590    0.0000 C   0  0
    8.1300   -2.5740    0.0000 C   0  0
    5.5520    0.8980    0.0000 H   0  0
    5.6120    1.6920    0.0000 H   0  0
    2.9510    0.4110    0.0000 H   0  0
    3.6090   -0.0380    0.0000 H   0  0
    5.2710    2.4000    0.0000 H   0  0
    4.6120    2.8480    0.0000 H   0  0
    2.6700    1.9130    0.0000 H   0  0
    2.6100    1.1180    0.0000 H   0  0
    3.8020    3.4760    0.0000 H   0  0
    2.9740    3.7660    0.0000 H   0  0
    2.6840    2.9380    0.0000 H   0  0
    3.0460   -0.5600    0.0000 H   0  0
    5.4790   -3.2070    0.0000 H   0  0
    7.7240   -0.2500    0.0000 H   0  0
    6.9870   -3.4760    0.0000 H   0  0
    1.8620   -1.6240    0.0000 H   0  0
    1.3960   -2.3670    0.0000 H   0  0
    2.1380   -2.8330    0.0000 H   0  0
    8.9530   -1.3740    0.0000 H   0  0
    8.5830   -2.9980    0.0000 H   0  0
  1 13  1  0
  1 17  1  0
  2  6  1  0
  2  7  1  0
  2 10  1  0
  3  8  1  0
  3  9  1  0
  3 12  1  0
  4 10  2  0
  4 15  1  0
  5 13  1  0
  5 16  1  0
  5 35  1  0
  6  8  1  0
  6 23  1  0
  6 24  1  0
  7  9  1  0
  7 25  1  0
  7 26  1  0
  8 27  1  0
  8 28  1  0
  9 29  1  0
  9 30  1  0
 10 11  1  0
 11 13  2  0
 11 14  1  0
 12 31  1  0
 12 32  1  0
 12 33  1  0
 14 17  2  0
 14 34  1  0
 15 16  2  0
 15 18  1  0
 16 19  1  0
 17 20  1  0
 18 21  2  0
 18 36  1  0
 19 22  2  0
 19 37  1  0
 20 38  1  0
 20 39  1  0
 20 40  1  0
 21 22  1  0
 21 41  1  0
 22 42  1  0
M  END
> <Name>
135398745

> <PUBCHEM_COMPOUND_CID>
135398745

> <Toxicity>
0

> <Data Set>
TrainingSet

$$$$
4594
  SciTegic12242523262D

 43 45  0  0  0  0            999 V2000
    7.9940    0.1690    0.0000 S   0  0
   11.4940    1.0350    0.0000 O   0  0
    8.4940    1.0350    0.0000 O   0  0
    2.8660    1.1690    0.0000 O   0  0
    6.4100    0.9740    0.0000 N   0  0
    6.4100   -0.6360    0.0000 N   0  0
    9.9940   -1.5630    0.0000 N   0  0
    8.4940   -0.6970    0.0000 C   0  0
    9.4940   -0.6970    0.0000 C   0  0
    9.9940    0.1690    0.0000 C   0  0
    6.9940    0.1690    0.0000 C   0  0
    5.4640    0.6690    0.0000 C   0  0
   10.9940    0.1690    0.0000 C   0  0
    5.4640   -0.3310    0.0000 C   0  0
   11.4940   -0.6970    0.0000 C   0  0
    9.4940    1.0350    0.0000 C   0  0
    4.5980    1.1690    0.0000 C   0  0
   10.9940   -1.5630    0.0000 C   0  0
    4.5980   -0.8310    0.0000 C   0  0
    3.7320    0.6690    0.0000 C   0  0
    3.7320   -0.3310    0.0000 C   0  0
   12.4940   -0.6970    0.0000 C   0  0
   12.4940    1.0350    0.0000 C   0  0
    2.0000    0.6690    0.0000 C   0  0
    7.9110   -0.9090    0.0000 H   0  0
    8.6020   -1.3080    0.0000 H   0  0
    6.6030    1.5630    0.0000 H   0  0
   10.0310    1.3450    0.0000 H   0  0
    9.1840    1.5720    0.0000 H   0  0
    8.9570    0.7250    0.0000 H   0  0
    4.5980    1.7890    0.0000 H   0  0
   11.3040   -2.1000    0.0000 H   0  0
    4.5980   -1.4510    0.0000 H   0  0
    3.1950   -0.6410    0.0000 H   0  0
   12.4940   -1.3170    0.0000 H   0  0
   13.1140   -0.6970    0.0000 H   0  0
   12.4940   -0.0770    0.0000 H   0  0
   12.4940    0.4150    0.0000 H   0  0
   13.1140    1.0350    0.0000 H   0  0
   12.4940    1.6550    0.0000 H   0  0
    1.6900    1.2060    0.0000 H   0  0
    1.4630    0.3590    0.0000 H   0  0
    2.3100    0.1320    0.0000 H   0  0
  1  3  2  0
  1  8  1  0
  1 11  1  0
  2 13  1  0
  2 23  1  0
  4 20  1  0
  4 24  1  0
  5 11  1  0
  5 12  1  0
  5 27  1  0
  6 11  2  0
  6 14  1  0
  7  9  1  0
  7 18  2  0
  8  9  1  0
  8 25  1  0
  8 26  1  0
  9 10  2  0
 10 13  1  0
 10 16  1  0
 12 14  2  0
 12 17  1  0
 13 15  2  0
 14 19  1  0
 15 18  1  0
 15 22  1  0
 16 28  1  0
 16 29  1  0
 16 30  1  0
 17 20  2  0
 17 31  1  0
 18 32  1  0
 19 21  2  0
 19 33  1  0
 20 21  1  0
 21 34  1  0
 22 35  1  0
 22 36  1  0
 22 37  1  0
 23 38  1  0
 23 39  1  0
 23 40  1  0
 24 41  1  0
 24 42  1  0
 24 43  1  0
M  END
> <Name>
4594

> <PUBCHEM_COMPOUND_CID>
4594

> <Toxicity>
0

> <Data Set>
TrainingSet

$$$$
4595
  SciTegic12242523262D

 41 44  0  0  1  0            999 V2000
    5.3920   -1.6100    0.0000 O   0  0
    4.5270    1.6610    0.0000 N   0  0
    8.3780   -0.9950    0.0000 N   0  0
    9.9870   -1.1700    0.0000 N   0  0
    6.7330   -0.4540    0.0000 C   0  0
    7.0550    0.5370    0.0000 C   0  0
    6.3520    1.3060    0.0000 C   0  0
    5.3360    1.0740    0.0000 C   0  0
    5.0270    0.1220    0.0000 C   0  0
    5.7120   -0.6620    0.0000 C   0  0
    7.3990   -1.1990    0.0000 C   0  0
    4.0270    0.1220    0.0000 C   0  0
    3.7180    1.0740    0.0000 C   0  0
    4.5270    2.6610    0.0000 C   0  0
    3.3420   -0.6620    0.0000 C   0  0
    2.7030    1.3060    0.0000 C   0  0
    9.1190   -1.6670    0.0000 C   0  0
    8.7880   -0.0830    0.0000 C   0  0
    2.3220   -0.4540    0.0000 C   0  0
    2.0000    0.5370    0.0000 C   0  0
    9.7820   -0.1920    0.0000 C   0  0
    9.0100   -2.6610    0.0000 C   0  0
    6.5380   -1.0420    0.0000 H   0  0
    7.6030    0.2470    0.0000 H   0  0
    7.4340    1.0280    0.0000 H   0  0
    6.8740    1.6400    0.0000 H   0  0
    6.1120    1.8780    0.0000 H   0  0
    6.8720   -1.5260    0.0000 H   0  0
    7.6290   -1.7750    0.0000 H   0  0
    5.1470    2.6610    0.0000 H   0  0
    4.5270    3.2810    0.0000 H   0  0
    3.9070    2.6610    0.0000 H   0  0
    3.5410   -1.2500    0.0000 H   0  0
    2.5180    1.8980    0.0000 H   0  0
    8.4800    0.4550    0.0000 H   0  0
    1.9090   -0.9160    0.0000 H   0  0
    1.3940    0.6680    0.0000 H   0  0
   10.1990    0.2680    0.0000 H   0  0
    8.3940   -2.5940    0.0000 H   0  0
    8.9430   -3.2780    0.0000 H   0  0
    9.6270   -2.7280    0.0000 H   0  0
  1 10  2  0
  2  8  1  0
  2 13  1  0
  2 14  1  0
  3 11  1  0
  3 17  1  0
  3 18  1  0
  4 17  2  0
  4 21  1  0
  5  6  1  0
  5 10  1  0
  5 11  1  0
  5 23  1  0
  6  7  1  0
  6 24  1  0
  6 25  1  0
  7  8  1  0
  7 26  1  0
  7 27  1  0
  8  9  2  0
  9 10  1  0
  9 12  1  0
 11 28  1  0
 11 29  1  0
 12 13  2  0
 12 15  1  0
 13 16  1  0
 14 30  1  0
 14 31  1  0
 14 32  1  0
 15 19  2  0
 15 33  1  0
 16 20  2  0
 16 34  1  0
 17 22  1  0
 18 21  2  0
 18 35  1  0
 19 20  1  0
 19 36  1  0
 20 37  1  0
 21 38  1  0
 22 39  1  0
 22 40  1  0
 22 41  1  0
M  END
> <Name>
4595

> <PUBCHEM_COMPOUND_CID>
4595

> <Toxicity>
0

> <Data Set>
TestSet

$$$$
65028
  SciTegic12242523262D

 50 50  0  0  1  0            999 V2000
    4.5980    1.2500    0.0000 O   0  0
    5.4640   -2.2500    0.0000 O   0  0
    7.1960   -2.2500    0.0000 O   0  0
    4.5980    2.2500    0.0000 O   0  0
    6.3300    2.2500    0.0000 N   0  0
    8.0620    1.2500    0.0000 N   0  0
    6.3300    1.2500    0.0000 C   0  0  2  0  0  0
    7.1960    0.7500    0.0000 C   0  0  2  0  0  0
    5.4640    0.7500    0.0000 C   0  0  1  0  0  0
    7.1960   -0.2500    0.0000 C   0  0
    5.4640   -0.2500    0.0000 C   0  0
    6.3300   -0.7500    0.0000 C   0  0
    3.7320    0.7500    0.0000 C   0  0
    2.8660    1.2500    0.0000 C   0  0
    3.7320   -0.2500    0.0000 C   0  0
    6.3300   -1.7500    0.0000 C   0  0
    5.4640    2.7500    0.0000 C   0  0
    2.0000    0.7500    0.0000 C   0  0
    2.8660   -0.7500    0.0000 C   0  0
    5.4640    3.7500    0.0000 C   0  0
    5.4640   -3.2500    0.0000 C   0  0
    4.5980   -3.7500    0.0000 C   0  0
    6.8670    1.5600    0.0000 H   0  0
    7.7330    0.4400    0.0000 H   0  0
    5.4640    1.3700    0.0000 H   0  0
    7.4080   -0.8330    0.0000 H   0  0
    7.8070   -0.1420    0.0000 H   0  0
    4.9270   -0.5600    0.0000 H   0  0
    3.7320    1.3700    0.0000 H   0  0
    6.8670    2.5600    0.0000 H   0  0
    8.5990    0.9400    0.0000 H   0  0
    8.0620    1.8700    0.0000 H   0  0
    3.2650    1.7250    0.0000 H   0  0
    2.4680    1.7250    0.0000 H   0  0
    3.9440   -0.8330    0.0000 H   0  0
    4.3430   -0.1420    0.0000 H   0  0
    1.6900    1.2870    0.0000 H   0  0
    1.4630    0.4400    0.0000 H   0  0
    2.3100    0.2130    0.0000 H   0  0
    2.5560   -0.2130    0.0000 H   0  0
    2.3290   -1.0600    0.0000 H   0  0
    3.1760   -1.2870    0.0000 H   0  0
    6.0840    3.7500    0.0000 H   0  0
    5.4640    4.3700    0.0000 H   0  0
    4.8440    3.7500    0.0000 H   0  0
    5.6760   -3.8330    0.0000 H   0  0
    6.0750   -3.1420    0.0000 H   0  0
    4.2880   -3.2130    0.0000 H   0  0
    4.0610   -4.0600    0.0000 H   0  0
    4.9080   -4.2870    0.0000 H   0  0
  9  1  1  1
  1 13  1  0
  2 16  1  0
  2 21  1  0
  3 16  2  0
  4 17  2  0
  7  5  1  6
  5 17  1  0
  5 30  1  0
  8  6  1  1
  6 31  1  0
  6 32  1  0
  7  8  1  0
  7  9  1  0
  7 23  1  1
  8 10  1  0
  8 24  1  6
  9 11  1  0
  9 25  1  6
 10 12  1  0
 10 26  1  0
 10 27  1  0
 11 12  2  0
 11 28  1  0
 12 16  1  0
 13 14  1  0
 13 15  1  0
 13 29  1  0
 14 18  1  0
 14 33  1  0
 14 34  1  0
 15 19  1  0
 15 35  1  0
 15 36  1  0
 17 20  1  0
 18 37  1  0
 18 38  1  0
 18 39  1  0
 19 40  1  0
 19 41  1  0
 19 42  1  0
 20 43  1  0
 20 44  1  0
 20 45  1  0
 21 22  1  0
 21 46  1  0
 21 47  1  0
 22 48  1  0
 22 49  1  0
 22 50  1  0
M  END
> <Name>
65028

> <PUBCHEM_COMPOUND_CID>
65028

> <Toxicity>
0

> <Data Set>
TestSet

$$$$
77050711
  SciTegic12242523262D

 53 56  0  0  1  0            999 V2000
    4.7320   -1.7500    0.0000 F   0  0
    2.8660   -2.2500    0.0000 F   0  0
    2.1340   -4.2500    0.0000 F   0  0
    3.8660   -7.2500    0.0000 F   0  0
    3.0000    7.2500    0.0000 F   0  0
    2.0000    6.2500    0.0000 F   0  0
    4.0000    6.2500    0.0000 F   0  0
    2.8660   -3.2500    0.0000 O   0  0
    3.8660    4.7500    0.0000 O   0  0
    5.7320   -2.7500    0.0000 N   0  0
    3.0000   -0.7500    0.0000 N   0  0
    5.8370   -1.7560    0.0000 N   0  0
    7.3150   -2.4140    0.0000 N   0  0
    6.8150   -1.5480    0.0000 N   0  0
    3.8660   -3.2500    0.0000 C   0  0  1  0  0  0
    3.8660   -2.2500    0.0000 C   0  0
    4.8660   -3.2500    0.0000 C   0  0
    3.8660   -4.2500    0.0000 C   0  0
    3.8660   -1.2500    0.0000 C   0  0
    3.0000   -4.7500    0.0000 C   0  0
    4.7320   -4.7500    0.0000 C   0  0
    4.7320   -0.7500    0.0000 C   0  0
    3.0000   -5.7500    0.0000 C   0  0
    4.7320   -5.7500    0.0000 C   0  0
    3.8660    0.7500    0.0000 C   0  0
    4.7320    0.2500    0.0000 C   0  0
    6.6460   -3.1570    0.0000 C   0  0
    3.8660   -6.2500    0.0000 C   0  0
    3.0000    0.2500    0.0000 C   0  0
    3.8660    1.7500    0.0000 C   0  0
    3.0000    2.2500    0.0000 C   0  0
    4.7320    2.2500    0.0000 C   0  0
    3.0000    3.2500    0.0000 C   0  0
    4.7320    3.2500    0.0000 C   0  0
    3.8660    3.7500    0.0000 C   0  0
    3.0000    5.2500    0.0000 C   0  0
    3.0000    6.2500    0.0000 C   0  0
    4.6540   -3.8330    0.0000 H   0  0
    4.7060   -2.6510    0.0000 H   0  0
    2.5560   -3.7870    0.0000 H   0  0
    5.2690   -4.4400    0.0000 H   0  0
    5.2690   -1.0600    0.0000 H   0  0
    2.4630   -6.0600    0.0000 H   0  0
    5.2690   -6.0600    0.0000 H   0  0
    5.2690    0.5600    0.0000 H   0  0
    6.7740   -3.7630    0.0000 H   0  0
    2.4630    0.5600    0.0000 H   0  0
    2.4630    1.9400    0.0000 H   0  0
    5.2690    1.9400    0.0000 H   0  0
    2.4630    3.5600    0.0000 H   0  0
    5.2690    3.5600    0.0000 H   0  0
    2.3890    5.3580    0.0000 H   0  0
    2.7880    4.6670    0.0000 H   0  0
  1 16  1  0
  2 16  1  0
  3 20  1  0
  4 28  1  0
  5 37  1  0
  6 37  1  0
  7 37  1  0
 15  8  1  1
  8 40  1  0
  9 35  1  0
  9 36  1  0
 10 12  1  0
 10 17  1  0
 10 27  1  0
 11 19  1  0
 11 29  2  0
 12 14  2  0
 13 14  1  0
 13 27  2  0
 15 16  1  6
 15 17  1  0
 15 18  1  0
 16 19  1  0
 17 38  1  0
 17 39  1  0
 18 20  1  0
 18 21  2  0
 19 22  2  0
 20 23  2  0
 21 24  1  0
 21 41  1  0
 22 26  1  0
 22 42  1  0
 23 28  1  0
 23 43  1  0
 24 28  2  0
 24 44  1  0
 25 26  2  0
 25 29  1  0
 25 30  1  0
 26 45  1  0
 27 46  1  0
 29 47  1  0
 30 31  1  0
 30 32  2  0
 31 33  2  0
 31 48  1  0
 32 34  1  0
 32 49  1  0
 33 35  1  0
 33 50  1  0
 34 35  2  0
 34 51  1  0
 36 37  1  0
 36 52  1  0
 36 53  1  0
M  END
> <Name>
77050711

> <PUBCHEM_COMPOUND_CID>
77050711

> <Toxicity>
1

> <Data Set>
TrainingSet

$$$$
6196
  SciTegic12242523262D

 47 50  0  0  1  0            999 V2000
    7.7810    0.0780    0.0000 S   0  0
    5.1160   -1.9440    0.0000 O   0  0
    7.4210   -3.2340    0.0000 O   0  0
    9.0680   -2.6990    0.0000 O   0  0
    3.8890   -0.7400    0.0000 O   0  0
    2.0040    1.6710    0.0000 O   0  0
    6.8300   -1.2310    0.0000 N   0  0
    5.1160    0.4820    0.0000 N   0  0
    2.7120    2.3770    0.0000 N   0  0
    6.8300   -0.2310    0.0000 C   0  0  1  0  0  0
    8.3690   -0.7310    0.0000 C   0  0
    7.7810   -1.5400    0.0000 C   0  0  2  0  0  0
    5.8220   -0.2270    0.0000 C   0  0  1  0  0  0
    5.8220   -1.2350    0.0000 C   0  0
    9.1780   -0.1430    0.0000 C   0  0
    9.1780   -1.3190    0.0000 C   0  0
    8.0900   -2.4910    0.0000 C   0  0
    4.1500    0.2250    0.0000 C   0  0
    3.4440    0.9340    0.0000 C   0  0
    3.6020    1.9210    0.0000 C   0  0
    2.4560    0.7790    0.0000 C   0  0
    4.4940    2.3730    0.0000 C   0  0
    2.0000   -0.1110    0.0000 C   0  0
    4.5490    3.3720    0.0000 C   0  0
    5.3320    1.8270    0.0000 C   0  0
    5.4410    3.8240    0.0000 C   0  0
    6.2240    2.2790    0.0000 C   0  0
    6.2780    3.2770    0.0000 C   0  0
    6.6990    0.6090    0.0000 H   0  0
    7.3420   -1.9780    0.0000 H   0  0
    6.0610    0.3450    0.0000 H   0  0
    9.5420   -0.6450    0.0000 H   0  0
    9.6790    0.2210    0.0000 H   0  0
    8.8130    0.3580    0.0000 H   0  0
    8.8130   -1.8200    0.0000 H   0  0
    9.6790   -1.6830    0.0000 H   0  0
    9.5420   -0.8170    0.0000 H   0  0
    5.2780    1.0800    0.0000 H   0  0
    7.6120   -3.8240    0.0000 H   0  0
    1.4480    0.1720    0.0000 H   0  0
    1.7170   -0.6630    0.0000 H   0  0
    2.5520   -0.3940    0.0000 H   0  0
    4.0290    3.7100    0.0000 H   0  0
    5.2980    1.2080    0.0000 H   0  0
    5.4740    4.4430    0.0000 H   0  0
    6.7430    1.9400    0.0000 H   0  0
    6.8310    3.5580    0.0000 H   0  0
  1 10  1  0
  1 11  1  0
  2 14  2  0
  3 17  1  0
  3 39  1  0
  4 17  2  0
  5 18  2  0
  6  9  1  0
  6 21  1  0
  7 10  1  0
  7 12  1  0
  7 14  1  0
 13  8  1  1
  8 18  1  0
  8 38  1  0
  9 20  2  0
 10 13  1  0
 10 29  1  6
 11 12  1  0
 11 15  1  0
 11 16  1  0
 12 17  1  6
 12 30  1  1
 13 14  1  0
 13 31  1  6
 15 32  1  0
 15 33  1  0
 15 34  1  0
 16 35  1  0
 16 36  1  0
 16 37  1  0
 18 19  1  0
 19 20  1  0
 19 21  2  0
 20 22  1  0
 21 23  1  0
 22 24  2  0
 22 25  1  0
 23 40  1  0
 23 41  1  0
 23 42  1  0
 24 26  1  0
 24 43  1  0
 25 27  2  0
 25 44  1  0
 26 28  2  0
 26 45  1  0
 27 28  1  0
 27 46  1  0
 28 47  1  0
M  END
> <Name>
6196

> <PUBCHEM_COMPOUND_CID>
6196

> <Toxicity>
0

> <Data Set>
TrainingSet

$$$$
4616
  SciTegic12242523262D

 31 33  0  0  1  0            999 V2000
    8.1650   -0.1360    0.0000 Cl  0  0
    2.3100   -1.1600    0.0000 O   0  0
    3.1200   -2.8430    0.0000 O   0  0
    4.7190   -2.2840    0.0000 N   0  0
    3.7440   -0.2590    0.0000 N   0  0
    5.5010   -0.6600    0.0000 C   0  0
    4.7190   -0.0370    0.0000 C   0  0
    5.5010   -1.6600    0.0000 C   0  0
    4.9410    0.9380    0.0000 C   0  0
    3.3100   -1.1600    0.0000 C   0  0
    6.3950   -0.1260    0.0000 C   0  0
    6.3950   -2.1950    0.0000 C   0  0
    3.7440   -2.0610    0.0000 C   0  0
    7.3010   -0.6390    0.0000 C   0  0
    7.3010   -1.6810    0.0000 C   0  0
    5.8970    1.2330    0.0000 C   0  0
    4.2080    1.6180    0.0000 C   0  0
    6.1190    2.2080    0.0000 C   0  0
    4.4310    2.5930    0.0000 C   0  0
    5.3860    2.8880    0.0000 C   0  0
    2.9800   -0.6350    0.0000 H   0  0
    4.8570   -2.8880    0.0000 H   0  0
    6.3870    0.4940    0.0000 H   0  0
    6.3870   -2.8150    0.0000 H   0  0
    7.8360   -1.9930    0.0000 H   0  0
    6.3510    0.8110    0.0000 H   0  0
    3.6160    1.4360    0.0000 H   0  0
    6.7120    2.3910    0.0000 H   0  0
    3.9760    3.0150    0.0000 H   0  0
    5.5240    3.4930    0.0000 H   0  0
    2.0000   -0.6230    0.0000 H   0  0
  1 14  1  0
  2 10  1  0
  2 31  1  0
  3 13  2  0
  4  8  1  0
  4 13  1  0
  4 22  1  0
  5  7  2  0
  5 10  1  0
  6  7  1  0
  6  8  2  0
  6 11  1  0
  7  9  1  0
  8 12  1  0
  9 16  2  0
  9 17  1  0
 10 13  1  0
 10 21  1  0
 11 14  2  0
 11 23  1  0
 12 15  2  0
 12 24  1  0
 14 15  1  0
 15 25  1  0
 16 18  1  0
 16 26  1  0
 17 19  2  0
 17 27  1  0
 18 20  2  0
 18 28  1  0
 19 20  1  0
 19 29  1  0
 20 30  1  0
M  END
> <Name>
4616

> <PUBCHEM_COMPOUND_CID>
4616

> <Toxicity>
0

> <Data Set>
TestSet

$$$$
52938427
  SciTegic12242523262D

 54 57  0  0  1  0            999 V2000
    6.9340    1.4440    0.0000 O   0  0
   10.8240   -5.2130    0.0000 O   0  0
    3.5820    4.6800    0.0000 O   0  0
    8.5560   -3.8500    0.0000 N   0  0
    5.6240    0.4930    0.0000 N   0  0
    7.2420    0.4930    0.0000 N   0  0
    5.9780    5.8020    0.0000 N   0  0
    8.2460   -2.9000    0.0000 C   0  0  1  0  0  0
    8.8290   -2.0950    0.0000 C   0  0
    8.2460   -1.2900    0.0000 C   0  0
    7.3000   -2.5950    0.0000 C   0  0
    7.3000   -1.5950    0.0000 C   0  0
    6.4340   -1.0950    0.0000 C   0  0
    6.4340   -3.0950    0.0000 C   0  0
    9.5350   -4.0560    0.0000 C   0  0
    5.5670   -1.5950    0.0000 C   0  0
    5.5670   -2.5950    0.0000 C   0  0
    6.4340   -0.0950    0.0000 C   0  0
    9.8460   -5.0070    0.0000 C   0  0
    5.9340    1.4440    0.0000 C   0  0
    5.3460    2.2530    0.0000 C   0  0
    5.7520    3.1660    0.0000 C   0  0
    4.3510    2.1480    0.0000 C   0  0
    4.1700    3.8710    0.0000 C   0  0
    5.1650    3.9750    0.0000 C   0  0
    3.7630    2.9570    0.0000 C   0  0
    2.5880    4.5750    0.0000 C   0  0
    2.0000    5.3840    0.0000 C   0  0
    2.1810    3.6620    0.0000 C   0  0
    5.5710    4.8890    0.0000 C   0  0
    7.8080   -3.3390    0.0000 H   0  0
    9.2900   -2.5100    0.0000 H   0  0
    9.2900   -1.6800    0.0000 H   0  0
    8.7830   -0.9810    0.0000 H   0  0
    7.9950   -0.7230    0.0000 H   0  0
    8.1420   -4.3120    0.0000 H   0  0
    6.4340   -3.7150    0.0000 H   0  0
   10.1490   -3.9690    0.0000 H   0  0
    9.5550   -3.4370    0.0000 H   0  0
    5.0300   -1.2850    0.0000 H   0  0
    5.0300   -2.9050    0.0000 H   0  0
    9.2320   -5.0940    0.0000 H   0  0
    9.8250   -5.6270    0.0000 H   0  0
   11.0170   -5.8020    0.0000 H   0  0
    6.3690    3.2310    0.0000 H   0  0
    4.0990    1.5820    0.0000 H   0  0
    3.1470    2.8930    0.0000 H   0  0
    2.9520    4.0740    0.0000 H   0  0
    2.5020    5.7490    0.0000 H   0  0
    1.6360    5.8860    0.0000 H   0  0
    1.4980    5.0200    0.0000 H   0  0
    1.6150    3.9140    0.0000 H   0  0
    1.9290    3.0960    0.0000 H   0  0
    2.7480    3.4100    0.0000 H   0  0
  1  6  1  0
  1 20  1  0
  2 19  1  0
  2 44  1  0
  3 24  1  0
  3 27  1  0
  8  4  1  6
  4 15  1  0
  4 36  1  0
  5 18  1  0
  5 20  2  0
  6 18  2  0
  7 30  3  0
  8  9  1  0
  8 11  1  0
  8 31  1  1
  9 10  1  0
  9 32  1  0
  9 33  1  0
 10 12  1  0
 10 34  1  0
 10 35  1  0
 11 12  2  0
 11 14  1  0
 12 13  1  0
 13 16  2  0
 13 18  1  0
 14 17  2  0
 14 37  1  0
 15 19  1  0
 15 38  1  0
 15 39  1  0
 16 17  1  0
 16 40  1  0
 17 41  1  0
 19 42  1  0
 19 43  1  0
 20 21  1  0
 21 22  1  0
 21 23  2  0
 22 25  2  0
 22 45  1  0
 23 26  1  0
 23 46  1  0
 24 25  1  0
 24 26  2  0
 25 30  1  0
 26 47  1  0
 27 28  1  0
 27 29  1  0
 27 48  1  0
 28 49  1  0
 28 50  1  0
 28 51  1  0
 29 52  1  0
 29 53  1  0
 29 54  1  0
M  END
> <Name>
52938427

> <PUBCHEM_COMPOUND_CID>
52938427

> <Toxicity>
1

> <Data Set>
TrainingSet

$$$$
36314
  SciTegic12242523262D

113119  0  0  1  0            999 V2000
    5.1480   -5.7420    0.0000 O   0  0
    6.3180   -4.1320    0.0000 O   0  0
    7.0060   -3.2800    0.0000 O   0  0
    7.4820   -1.9330    0.0000 O   0  0
    2.4960   -3.0850    0.0000 O   0  0
    3.5450   -0.3020    0.0000 O   0  0
    2.8690   -1.9330    0.0000 O   0  0
    7.5880    0.4790    0.0000 O   0  0
    7.6040   -5.2920    0.0000 O   0  0
    8.4240   -2.2860    0.0000 O   0  0
    4.7690    0.9220    0.0000 O   0  0
    6.3630    1.7040    0.0000 O   0  0
    9.0020    1.8930    0.0000 O   0  0
    7.2590    5.0500    0.0000 O   0  0
    6.8110    3.3760    0.0000 N   0  0
    5.1760   -3.2400    0.0000 C   0  0  2  0  0  0
    5.3270   -4.2700    0.0000 C   0  0  2  0  0  0
    4.2520   -2.8570    0.0000 C   0  0  1  0  0  0
    4.5060   -4.9110    0.0000 C   0  0  1  0  0  0
    6.0990   -2.8570    0.0000 C   0  0  1  0  0  0
    6.4820   -1.9330    0.0000 C   0  0  2  0  0  0
    3.4160   -3.4780    0.0000 C   0  0  2  0  0  0
    3.5440   -4.5120    0.0000 C   0  0
    6.0990   -1.0090    0.0000 C   0  0
    5.9770   -5.0960    0.0000 C   0  0
    3.8690   -1.9330    0.0000 C   0  0
    7.1550   -1.1920    0.0000 C   0  0
    5.1760   -0.6270    0.0000 C   0  0
    3.3280   -2.4740    0.0000 C   0  0
    4.2520   -1.0090    0.0000 C   0  0  1  0  0  0
    6.8800   -0.2280    0.0000 C   0  0  1  0  0  0
    5.9170    0.0460    0.0000 C   0  0
    6.3970    0.1010    0.0000 C   0  0
    7.2100   -0.7120    0.0000 C   0  0
    5.6900    1.0200    0.0000 C   0  0
    6.6260   -5.0840    0.0000 C   0  0
    8.0020   -3.1930    0.0000 C   0  0
    5.9560   -5.8260    0.0000 C   0  0
    3.8030    0.6640    0.0000 C   0  0
    7.3290    1.4450    0.0000 C   0  0
    8.5760   -4.0120    0.0000 C   0  0
    8.0360    2.1520    0.0000 C   0  0  1  0  0  0
    3.0960    1.3710    0.0000 C   0  0
    9.5720   -3.9240    0.0000 C   0  0
    8.1530   -4.9180    0.0000 C   0  0
    7.7770    3.1180    0.0000 C   0  0  2  0  0  0
   10.1450   -4.7440    0.0000 C   0  0
    8.7270   -5.7370    0.0000 C   0  0
    9.7230   -5.6500    0.0000 C   0  0
    8.4840    3.8250    0.0000 C   0  0
    9.4500    3.5660    0.0000 C   0  0
    8.2250    4.7910    0.0000 C   0  0
    6.5520    4.3420    0.0000 C   0  0
   10.1570    4.2730    0.0000 C   0  0
    8.9320    5.4980    0.0000 C   0  0
    5.5860    4.6010    0.0000 C   0  0
    9.8980    5.2390    0.0000 C   0  0
    4.8790    3.8940    0.0000 C   0  0
    5.3280    5.5670    0.0000 C   0  0
    3.9130    4.1530    0.0000 C   0  0
    4.3620    5.8260    0.0000 C   0  0
    3.6540    5.1190    0.0000 C   0  0
    5.9610   -3.5650    0.0000 H   0  0
    3.9900   -5.5860    0.0000 H   0  0
    6.6770   -2.6320    0.0000 H   0  0
    2.9200   -3.8510    0.0000 H   0  0
    2.9240   -4.4820    0.0000 H   0  0
    3.4080   -5.1170    0.0000 H   0  0
    6.3580   -5.5840    0.0000 H   0  0
    6.4640   -4.7130    0.0000 H   0  0
    7.5300   -1.6860    0.0000 H   0  0
    7.7100   -0.9140    0.0000 H   0  0
    3.5650   -1.9020    0.0000 H   0  0
    2.7550   -2.2370    0.0000 H   0  0
    3.0900   -3.0470    0.0000 H   0  0
    4.3730   -0.4010    0.0000 H   0  0
    7.4810   -0.3840    0.0000 H   0  0
    6.9960   -0.0590    0.0000 H   0  0
    6.5580    0.7000    0.0000 H   0  0
    5.7980    0.2620    0.0000 H   0  0
    7.3710   -1.3110    0.0000 H   0  0
    7.8090   -0.5510    0.0000 H   0  0
    7.0500   -0.1130    0.0000 H   0  0
    7.7920   -1.3960    0.0000 H   0  0
    2.0000   -3.4570    0.0000 H   0  0
    6.2940    1.1610    0.0000 H   0  0
    5.5490    1.6240    0.0000 H   0  0
    5.0860    0.8790    0.0000 H   0  0
    5.4960   -5.4110    0.0000 H   0  0
    5.5410   -6.2860    0.0000 H   0  0
    6.4160   -6.2410    0.0000 H   0  0
    8.1960    1.5530    0.0000 H   0  0
    3.5350    1.8090    0.0000 H   0  0
    2.6580    1.8090    0.0000 H   0  0
    2.6580    0.9320    0.0000 H   0  0
    9.8340   -3.3630    0.0000 H   0  0
    7.5350   -4.9720    0.0000 H   0  0
    7.6160    3.7170    0.0000 H   0  0
   10.7630   -4.6900    0.0000 H   0  0
    8.4650   -6.2990    0.0000 H   0  0
    9.1620    1.2940    0.0000 H   0  0
   10.0780   -6.1580    0.0000 H   0  0
    6.3730    2.9380    0.0000 H   0  0
    9.6100    2.9670    0.0000 H   0  0
    7.6260    4.9510    0.0000 H   0  0
   10.7560    4.1130    0.0000 H   0  0
    8.7720    6.0970    0.0000 H   0  0
   10.3370    5.6770    0.0000 H   0  0
    5.0400    3.2950    0.0000 H   0  0
    5.7660    6.0060    0.0000 H   0  0
    3.4750    3.7140    0.0000 H   0  0
    4.2010    6.4250    0.0000 H   0  0
    3.0560    5.2790    0.0000 H   0  0
  1 19  1  0
  1 25  1  0
 17  2  1  1
  2 36  1  0
 20  3  1  1
  3 37  1  0
 21  4  1  6
  4 84  1  0
 22  5  1  6
  5 85  1  0
 30  6  1  6
  6 39  1  0
  7 26  2  0
 31  8  1  1
  8 40  1  0
  9 36  2  0
 10 37  2  0
 11 39  2  0
 12 40  2  0
 13 42  1  0
 13101  1  0
 14 53  2  0
 15 46  1  0
 15 53  1  0
 15103  1  0
 16 17  1  0
 16 18  1  0
 16 20  1  0
 16 63  1  1
 17 19  1  0
 17 25  1  0
 18 22  1  0
 18 26  1  0
 18 29  1  6
 19 23  1  0
 19 64  1  1
 20 21  1  0
 20 65  1  6
 21 24  1  0
 21 27  1  0
 22 23  1  0
 22 66  1  1
 23 67  1  0
 23 68  1  0
 24 28  1  0
 24 33  1  0
 24 34  1  0
 25 69  1  0
 25 70  1  0
 26 30  1  0
 27 31  1  0
 27 71  1  0
 27 72  1  0
 28 30  1  0
 28 32  2  0
 29 73  1  0
 29 74  1  0
 29 75  1  0
 30 76  1  1
 31 32  1  0
 31 77  1  6
 32 35  1  0
 33 78  1  0
 33 79  1  0
 33 80  1  0
 34 81  1  0
 34 82  1  0
 34 83  1  0
 35 86  1  0
 35 87  1  0
 35 88  1  0
 36 38  1  0
 37 41  1  0
 38 89  1  0
 38 90  1  0
 38 91  1  0
 39 43  1  0
 42 40  1  1
 41 44  2  0
 41 45  1  0
 42 46  1  0
 42 92  1  6
 43 93  1  0
 43 94  1  0
 43 95  1  0
 44 47  1  0
 44 96  1  0
 45 48  2  0
 45 97  1  0
 46 50  1  1
 46 98  1  6
 47 49  2  0
 47 99  1  0
 48 49  1  0
 48100  1  0
 49102  1  0
 50 51  2  0
 50 52  1  0
 51 54  1  0
 51104  1  0
 52 55  2  0
 52105  1  0
 53 56  1  0
 54 57  2  0
 54106  1  0
 55 57  1  0
 55107  1  0
 56 58  2  0
 56 59  1  0
 57108  1  0
 58 60  1  0
 58109  1  0
 59 61  2  0
 59110  1  0
 60 62  2  0
 60111  1  0
 61 62  1  0
 61112  1  0
 62113  1  0
M  END
> <Name>
36314

> <PUBCHEM_COMPOUND_CID>
36314

> <Toxicity>
1

> <Data Set>
TrainingSet

$$$$
10295295
  SciTegic12242523262D

 61 64  0  0  0  0            999 V2000
    2.8660   -4.1140    0.0000 O   0  0
    2.0000   -2.6140    0.0000 O   0  0
    6.3300    2.8860    0.0000 N   0  0
    7.1390    3.4730    0.0000 N   0  0
    9.8220    1.9200    0.0000 C   0  0
    9.8220   -0.1490    0.0000 C   0  0
   10.7280    1.4060    0.0000 C   0  0
   10.7280    0.3650    0.0000 C   0  0
    8.9280    1.3860    0.0000 C   0  0
    8.9280    0.3860    0.0000 C   0  0
   10.3120    2.7920    0.0000 C   0  0
    9.3120    2.7800    0.0000 C   0  0
   10.3120   -1.0210    0.0000 C   0  0
    9.3120   -1.0090    0.0000 C   0  0
    8.0620    1.8860    0.0000 C   0  0
    8.0620   -0.1140    0.0000 C   0  0
    7.1960    1.3860    0.0000 C   0  0
    7.1960    0.3860    0.0000 C   0  0
    6.3300    1.8860    0.0000 C   0  0
    6.3300   -0.1140    0.0000 C   0  0
    6.3300   -1.1140    0.0000 C   0  0
    5.5210    3.4730    0.0000 C   0  0
    5.4640   -1.6140    0.0000 C   0  0
    5.8300    4.4240    0.0000 C   0  0
    6.8300    4.4240    0.0000 C   0  0
    4.5980   -1.1140    0.0000 C   0  0
    5.4640   -2.6140    0.0000 C   0  0
    3.7320   -1.6140    0.0000 C   0  0
    4.5980   -3.1140    0.0000 C   0  0
    3.7320   -2.6140    0.0000 C   0  0
    2.8660   -3.1140    0.0000 C   0  0
   11.3390    1.3000    0.0000 H   0  0
   10.9370    1.9900    0.0000 H   0  0
   10.9370   -0.2190    0.0000 H   0  0
   11.3390    0.4710    0.0000 H   0  0
   10.8530    2.4880    0.0000 H   0  0
   10.6160    3.3320    0.0000 H   0  0
    9.7720    3.0960    0.0000 H   0  0
    9.8460    3.0970    0.0000 H   0  0
    8.9960    3.3140    0.0000 H   0  0
    8.7790    2.4640    0.0000 H   0  0
    9.7720   -1.3250    0.0000 H   0  0
   10.6160   -1.5610    0.0000 H   0  0
   10.8530   -0.7170    0.0000 H   0  0
    8.7790   -0.6930    0.0000 H   0  0
    8.9960   -1.5430    0.0000 H   0  0
    9.8460   -1.3260    0.0000 H   0  0
    8.0620    2.5060    0.0000 H   0  0
    8.0620   -0.7340    0.0000 H   0  0
    5.7200    1.9930    0.0000 H   0  0
    6.1180    1.3030    0.0000 H   0  0
    5.7930    0.1960    0.0000 H   0  0
    6.8670   -1.4240    0.0000 H   0  0
    4.9320    3.2820    0.0000 H   0  0
    5.4660    4.9260    0.0000 H   0  0
    7.1950    4.9260    0.0000 H   0  0
    4.5980   -0.4940    0.0000 H   0  0
    6.0010   -2.9240    0.0000 H   0  0
    3.1950   -1.3040    0.0000 H   0  0
    4.5980   -3.7340    0.0000 H   0  0
    2.3290   -4.4240    0.0000 H   0  0
  1 31  1  0
  1 61  1  0
  2 31  2  0
  3  4  1  0
  3 19  1  0
  3 22  1  0
  4 25  2  0
  5  7  1  0
  5  9  1  0
  5 11  1  0
  5 12  1  0
  6  8  1  0
  6 10  1  0
  6 13  1  0
  6 14  1  0
  7  8  1  0
  7 32  1  0
  7 33  1  0
  8 34  1  0
  8 35  1  0
  9 10  1  0
  9 15  2  0
 10 16  2  0
 11 36  1  0
 11 37  1  0
 11 38  1  0
 12 39  1  0
 12 40  1  0
 12 41  1  0
 13 42  1  0
 13 43  1  0
 13 44  1  0
 14 45  1  0
 14 46  1  0
 14 47  1  0
 15 17  1  0
 15 48  1  0
 16 18  1  0
 16 49  1  0
 17 18  2  0
 17 19  1  0
 18 20  1  0
 19 50  1  0
 19 51  1  0
 20 21  2  0
 20 52  1  0
 21 23  1  0
 21 53  1  0
 22 24  2  0
 22 54  1  0
 23 26  1  0
 23 27  2  0
 24 25  1  0
 24 55  1  0
 25 56  1  0
 26 28  2  0
 26 57  1  0
 27 29  1  0
 27 58  1  0
 28 30  1  0
 28 59  1  0
 29 30  2  0
 29 60  1  0
 30 31  1  0
M  END
> <Name>
10295295

> <PUBCHEM_COMPOUND_CID>
10295295

> <Toxicity>
1

> <Data Set>
TrainingSet

$$$$
11806
  SciTegic12242523262D

 21 22  0  0  0  0            999 V2000
    5.6650    2.6200    0.0000 Br  0  0
    2.2690    4.6200    0.0000 O   0  0
    0.5370    1.6200    0.0000 O   0  0
    2.2690    1.6200    0.0000 N   0  0
    1.4030    3.1200    0.0000 N   0  0
    4.0810    3.4250    0.0000 N   0  0
    4.0810    1.8150    0.0000 N   0  0
    3.1350    2.1200    0.0000 C   0  0
    3.1350    3.1200    0.0000 C   0  0
    2.2690    3.6200    0.0000 C   0  0
    1.4030    2.1200    0.0000 C   0  0
    2.2690    0.6200    0.0000 C   0  0
    0.5370    3.6200    0.0000 C   0  0
    4.6650    2.6200    0.0000 C   0  0
    4.2740    4.0140    0.0000 H   0  0
    1.6490    0.6200    0.0000 H   0  0
    2.2690    0.0000    0.0000 H   0  0
    2.8890    0.6200    0.0000 H   0  0
    0.8470    4.1570    0.0000 H   0  0
    0.0000    3.9300    0.0000 H   0  0
    0.2270    3.0830    0.0000 H   0  0
  1 14  1  0
  2 10  2  0
  3 11  2  0
  4  8  1  0
  4 11  1  0
  4 12  1  0
  5 10  1  0
  5 11  1  0
  5 13  1  0
  6  9  1  0
  6 14  1  0
  6 15  1  0
  7  8  1  0
  7 14  2  0
  8  9  2  0
  9 10  1  0
 12 16  1  0
 12 17  1  0
 12 18  1  0
 13 19  1  0
 13 20  1  0
 13 21  1  0
M  END
> <Name>
11806

> <PUBCHEM_COMPOUND_CID>
11806

> <Toxicity>
1

> <Data Set>
TrainingSet

$$$$
4679
  SciTegic12242523262D

 41 43  0  0  0  0            999 V2000
    8.8600    0.0000    0.0000 S   0  0
    2.0000    1.0000    0.0000 F   0  0
    2.8660   -0.5000    0.0000 F   0  0
   10.3600    0.8660    0.0000 O   0  0
    3.7320    1.0000    0.0000 O   0  0
    9.3600    0.8660    0.0000 O   0  0
   12.3600    0.8660    0.0000 O   0  0
    7.2760    0.8050    0.0000 N   0  0
    7.2760   -0.8050    0.0000 N   0  0
   10.8600   -1.7320    0.0000 N   0  0
    6.3300    0.5000    0.0000 C   0  0
    7.8600    0.0000    0.0000 C   0  0
    6.3300   -0.5000    0.0000 C   0  0
    9.3600   -0.8660    0.0000 C   0  0
   10.3600   -0.8660    0.0000 C   0  0
    5.4640    1.0000    0.0000 C   0  0
    5.4640   -1.0000    0.0000 C   0  0
   10.8600    0.0000    0.0000 C   0  0
    4.5980    0.5000    0.0000 C   0  0
    4.5980   -0.5000    0.0000 C   0  0
   11.8600    0.0000    0.0000 C   0  0
   12.3600   -0.8660    0.0000 C   0  0
   11.8600   -1.7320    0.0000 C   0  0
   10.8600    1.7320    0.0000 C   0  0
    2.8660    0.5000    0.0000 C   0  0
   13.3600    0.8660    0.0000 C   0  0
    8.7770   -1.0780    0.0000 H   0  0
    9.4680   -1.4770    0.0000 H   0  0
    7.4690    1.3940    0.0000 H   0  0
    5.4640    1.6200    0.0000 H   0  0
    5.4640   -1.6200    0.0000 H   0  0
    4.0610   -0.8100    0.0000 H   0  0
   12.9800   -0.8660    0.0000 H   0  0
   12.1700   -2.2690    0.0000 H   0  0
   11.3970    1.4220    0.0000 H   0  0
   11.1700    2.2690    0.0000 H   0  0
   10.3230    2.0420    0.0000 H   0  0
    2.8660    1.1200    0.0000 H   0  0
   13.3600    0.2460    0.0000 H   0  0
   13.9800    0.8660    0.0000 H   0  0
   13.3600    1.4860    0.0000 H   0  0
  1  6  2  0
  1 12  1  0
  1 14  1  0
  2 25  1  0
  3 25  1  0
  4 18  1  0
  4 24  1  0
  5 19  1  0
  5 25  1  0
  7 21  1  0
  7 26  1  0
  8 11  1  0
  8 12  1  0
  8 29  1  0
  9 12  2  0
  9 13  1  0
 10 15  1  0
 10 23  2  0
 11 13  2  0
 11 16  1  0
 13 17  1  0
 14 15  1  0
 14 27  1  0
 14 28  1  0
 15 18  2  0
 16 19  2  0
 16 30  1  0
 17 20  2  0
 17 31  1  0
 18 21  1  0
 19 20  1  0
 20 32  1  0
 21 22  2  0
 22 23  1  0
 22 33  1  0
 23 34  1  0
 24 35  1  0
 24 36  1  0
 24 37  1  0
 25 38  1  0
 26 39  1  0
 26 40  1  0
 26 41  1  0
M  END
> <Name>
4679

> <PUBCHEM_COMPOUND_CID>
4679

> <Toxicity>
0

> <Data Set>
TrainingSet

$$$$
6613
  SciTegic12242523262D

 32 31  0  0  1  0            999 V2000
    5.1350    1.0950    0.0000 O   0  0
    2.5370   -0.4050    0.0000 O   0  0
    6.0010   -1.4050    0.0000 O   0  0
   10.3310    0.0950    0.0000 O   0  0
    9.4650   -1.4050    0.0000 O   0  0
    6.8670    0.0950    0.0000 N   0  0
    4.2690   -0.4050    0.0000 C   0  0
    5.1350    0.0950    0.0000 C   0  0  2  0  0  0
    3.4030   -0.9050    0.0000 C   0  0
    3.7690    0.4610    0.0000 C   0  0
    4.7690   -1.2710    0.0000 C   0  0
    6.0010   -0.4050    0.0000 C   0  0
    7.7330   -0.4050    0.0000 C   0  0
    8.5990    0.0950    0.0000 C   0  0
    9.4650   -0.4050    0.0000 C   0  0
    5.6720    0.4050    0.0000 H   0  0
    3.0040   -1.3800    0.0000 H   0  0
    3.8020   -1.3800    0.0000 H   0  0
    4.3060    0.7710    0.0000 H   0  0
    3.4590    0.9980    0.0000 H   0  0
    3.2320    0.1510    0.0000 H   0  0
    4.2320   -1.5810    0.0000 H   0  0
    5.0790   -1.8080    0.0000 H   0  0
    5.3060   -0.9610    0.0000 H   0  0
    6.8670    0.7150    0.0000 H   0  0
    5.6720    1.4050    0.0000 H   0  0
    7.3350   -0.8800    0.0000 H   0  0
    8.1320   -0.8800    0.0000 H   0  0
    2.0000   -0.7150    0.0000 H   0  0
    8.9980    0.5700    0.0000 H   0  0
    8.2010    0.5700    0.0000 H   0  0
   10.8680   -0.2150    0.0000 H   0  0
  1  8  1  0
  1 26  1  0
  2  9  1  0
  2 29  1  0
  3 12  2  0
  4 15  1  0
  4 32  1  0
  5 15  2  0
  6 12  1  0
  6 13  1  0
  6 25  1  0
  7  8  1  0
  7  9  1  0
  7 10  1  0
  7 11  1  0
  8 12  1  1
  8 16  1  6
  9 17  1  0
  9 18  1  0
 10 19  1  0
 10 20  1  0
 10 21  1  0
 11 22  1  0
 11 23  1  0
 11 24  1  0
 13 14  1  0
 13 27  1  0
 13 28  1  0
 14 15  1  0
 14 30  1  0
 14 31  1  0
M  END
> <Name>
6613

> <PUBCHEM_COMPOUND_CID>
6613

> <Toxicity>
1

> <Data Set>
TestSet

$$$$
43815
  SciTegic12242523262D

 44 47  0  0  1  0            999 V2000
    2.8660   -3.3100    0.0000 F   0  0
    5.4640    1.1900    0.0000 O   0  0
    9.0080    0.9950    0.0000 O   0  0
    9.0080   -0.6150    0.0000 O   0  0
    2.8660    2.6900    0.0000 N   0  0
    2.8660    0.6900    0.0000 C   0  0  1  0  0  0
    3.7320    1.1900    0.0000 C   0  0  1  0  0  0
    2.0000    1.1900    0.0000 C   0  0
    3.7320    2.1900    0.0000 C   0  0
    2.0000    2.1900    0.0000 C   0  0
    4.5980    0.6900    0.0000 C   0  0
    2.8660   -0.3100    0.0000 C   0  0
    2.0000   -0.8100    0.0000 C   0  0
    3.7320   -0.8100    0.0000 C   0  0
    2.0000   -1.8100    0.0000 C   0  0
    3.7320   -1.8100    0.0000 C   0  0
    6.3300    0.6900    0.0000 C   0  0
    2.8660   -2.3100    0.0000 C   0  0
    7.1960    1.1900    0.0000 C   0  0
    6.3300   -0.3100    0.0000 C   0  0
    8.0620    0.6900    0.0000 C   0  0
    8.0620   -0.3100    0.0000 C   0  0
    7.1960   -0.8100    0.0000 C   0  0
    9.5920    0.1900    0.0000 C   0  0
    3.4030    0.3800    0.0000 H   0  0
    4.2690    1.5000    0.0000 H   0  0
    1.3890    1.2980    0.0000 H   0  0
    1.7880    0.6070    0.0000 H   0  0
    4.3430    2.0820    0.0000 H   0  0
    3.9440    2.7730    0.0000 H   0  0
    1.7880    2.7730    0.0000 H   0  0
    1.3890    2.0820    0.0000 H   0  0
    4.2000    0.2150    0.0000 H   0  0
    4.9970    0.2150    0.0000 H   0  0
    2.8660    3.3100    0.0000 H   0  0
    1.4630   -0.5000    0.0000 H   0  0
    4.2690   -0.5000    0.0000 H   0  0
    1.4630   -2.1200    0.0000 H   0  0
    4.2690   -2.1200    0.0000 H   0  0
    7.1960    1.8100    0.0000 H   0  0
    5.7930   -0.6200    0.0000 H   0  0
    7.1960   -1.4300    0.0000 H   0  0
   10.0530   -0.2250    0.0000 H   0  0
   10.0530    0.6050    0.0000 H   0  0
  1 18  1  0
  2 11  1  0
  2 17  1  0
  3 21  1  0
  3 24  1  0
  4 22  1  0
  4 24  1  0
  5  9  1  0
  5 10  1  0
  5 35  1  0
  6  7  1  0
  6  8  1  0
  6 12  1  6
  6 25  1  1
  7  9  1  0
  7 11  1  1
  7 26  1  6
  8 10  1  0
  8 27  1  0
  8 28  1  0
  9 29  1  0
  9 30  1  0
 10 31  1  0
 10 32  1  0
 11 33  1  0
 11 34  1  0
 12 13  1  0
 12 14  2  0
 13 15  2  0
 13 36  1  0
 14 16  1  0
 14 37  1  0
 15 18  1  0
 15 38  1  0
 16 18  2  0
 16 39  1  0
 17 19  1  0
 17 20  2  0
 19 21  2  0
 19 40  1  0
 20 23  1  0
 20 41  1  0
 21 22  1  0
 22 23  2  0
 23 42  1  0
 24 43  1  0
 24 44  1  0
M  END
> <Name>
43815

> <PUBCHEM_COMPOUND_CID>
43815

> <Toxicity>
0

> <Data Set>
TrainingSet

$$$$
10113978
  SciTegic12242523262D

 54 57  0  0  0  0            999 V2000
    3.4030   -0.8180    0.0000 S   0  0
    3.9030   -1.6840    0.0000 O   0  0
    2.9030    0.0480    0.0000 O   0  0
   14.4590    0.1820    0.0000 N   0  0
   10.3310   -0.8180    0.0000 N   0  0
   13.8760   -0.6220    0.0000 N   0  0
    6.8670   -0.8180    0.0000 N   0  0
    8.5990   -0.8180    0.0000 N   0  0
    7.7330    0.6820    0.0000 N   0  0
    2.5370   -1.3180    0.0000 N   0  0
   12.9290    0.6820    0.0000 C   0  0
   12.9290   -0.3180    0.0000 C   0  0
   13.8760    0.9870    0.0000 C   0  0
   11.1970   -0.3180    0.0000 C   0  0
   12.0630   -0.8180    0.0000 C   0  0
   12.0630    1.1820    0.0000 C   0  0
   11.1970    0.6820    0.0000 C   0  0
   14.1860    1.9380    0.0000 C   0  0
    9.4650   -0.3180    0.0000 C   0  0
    4.2690   -0.3180    0.0000 C   0  0
   15.4590    0.1820    0.0000 C   0  0
    4.2690    0.6820    0.0000 C   0  0
    6.0010   -0.3180    0.0000 C   0  0
   10.3310   -1.8180    0.0000 C   0  0
    5.1350   -0.8180    0.0000 C   0  0
    5.1350    1.1820    0.0000 C   0  0
    6.0010    0.6820    0.0000 C   0  0
    7.7330   -0.3180    0.0000 C   0  0
    9.4650    0.6820    0.0000 C   0  0
    3.4030    1.1820    0.0000 C   0  0
    8.5990    1.1820    0.0000 C   0  0
   12.0630   -1.4380    0.0000 H   0  0
   12.0630    1.8020    0.0000 H   0  0
   10.6600    0.9920    0.0000 H   0  0
   14.7750    1.7450    0.0000 H   0  0
   14.3790    2.5270    0.0000 H   0  0
   13.5970    2.1300    0.0000 H   0  0
   15.4590   -0.4380    0.0000 H   0  0
   16.0790    0.1820    0.0000 H   0  0
   15.4590    0.8020    0.0000 H   0  0
    9.7110   -1.8180    0.0000 H   0  0
   10.3310   -2.4380    0.0000 H   0  0
   10.9510   -1.8180    0.0000 H   0  0
    5.1350   -1.4380    0.0000 H   0  0
    5.1350    1.8020    0.0000 H   0  0
    6.5380    0.9920    0.0000 H   0  0
    6.8670   -1.4380    0.0000 H   0  0
   10.0020    0.9920    0.0000 H   0  0
    3.7130    1.7190    0.0000 H   0  0
    2.8660    1.4920    0.0000 H   0  0
    3.0930    0.6450    0.0000 H   0  0
    8.5990    1.8020    0.0000 H   0  0
    2.5370   -1.9380    0.0000 H   0  0
    2.0000   -1.0080    0.0000 H   0  0
  1  2  2  0
  1  3  2  0
  1 10  1  0
  1 20  1  0
  4  6  1  0
  4 13  1  0
  4 21  1  0
  5 14  1  0
  5 19  1  0
  5 24  1  0
  6 12  2  0
  7 23  1  0
  7 28  1  0
  7 47  1  0
  8 19  1  0
  8 28  2  0
  9 28  1  0
  9 31  2  0
 10 53  1  0
 10 54  1  0
 11 12  1  0
 11 13  2  0
 11 16  1  0
 12 15  1  0
 13 18  1  0
 14 15  2  0
 14 17  1  0
 15 32  1  0
 16 17  2  0
 16 33  1  0
 17 34  1  0
 18 35  1  0
 18 36  1  0
 18 37  1  0
 19 29  2  0
 20 22  1  0
 20 25  2  0
 21 38  1  0
 21 39  1  0
 21 40  1  0
 22 26  2  0
 22 30  1  0
 23 25  1  0
 23 27  2  0
 24 41  1  0
 24 42  1  0
 24 43  1  0
 25 44  1  0
 26 27  1  0
 26 45  1  0
 27 46  1  0
 29 31  1  0
 29 48  1  0
 30 49  1  0
 30 50  1  0
 30 51  1  0
 31 52  1  0
M  END
> <Name>
10113978

> <PUBCHEM_COMPOUND_CID>
10113978

> <Toxicity>
1

> <Data Set>
TrainingSet

$$$$
5852
  SciTegic12242523262D

 20 19  0  0  1  0            999 V2000
    2.5370   -0.9050    0.0000 S   0  0
    6.0010    0.0950    0.0000 O   0  0
    5.1350   -1.4050    0.0000 O   0  0
    4.2690    1.0950    0.0000 N   0  0
    3.4030   -0.4050    0.0000 C   0  0
    4.2690    0.0950    0.0000 C   0  0  2  0  0  0
    2.9030    0.4610    0.0000 C   0  0
    3.9030   -1.2710    0.0000 C   0  0
    5.1350   -0.4050    0.0000 C   0  0
    4.8060    0.4050    0.0000 H   0  0
    3.4400    0.7710    0.0000 H   0  0
    2.5930    0.9980    0.0000 H   0  0
    2.3660    0.1510    0.0000 H   0  0
    3.3660   -1.5810    0.0000 H   0  0
    4.2130   -1.8080    0.0000 H   0  0
    4.4400   -0.9610    0.0000 H   0  0
    4.8060    1.4050    0.0000 H   0  0
    3.7320    1.4050    0.0000 H   0  0
    2.0000   -0.5950    0.0000 H   0  0
    6.5380   -0.2150    0.0000 H   0  0
  1  5  1  0
  1 19  1  0
  2  9  1  0
  2 20  1  0
  3  9  2  0
  4  6  1  0
  4 17  1  0
  4 18  1  0
  5  6  1  0
  5  7  1  0
  5  8  1  0
  6  9  1  1
  6 10  1  6
  7 11  1  0
  7 12  1  0
  7 13  1  0
  8 14  1  0
  8 15  1  0
  8 16  1  0
M  END
> <Name>
5852

> <PUBCHEM_COMPOUND_CID>
5852

> <Toxicity>
1

> <Data Set>
TrainingSet

$$$$
5904
  SciTegic12242523262D

 41 43  0  0  1  0            999 V2000
    9.2360    1.2970    0.0000 S   0  0
    6.5720   -0.7240    0.0000 O   0  0
    8.8760   -2.0150    0.0000 O   0  0
   10.5240   -1.4800    0.0000 O   0  0
    5.3440    0.4790    0.0000 O   0  0
    8.2850   -0.0120    0.0000 N   0  0
    6.5720    1.7010    0.0000 N   0  0
    8.2850    0.9880    0.0000 C   0  0  1  0  0  0
    9.8240    0.4880    0.0000 C   0  0
    9.2360   -0.3210    0.0000 C   0  0  2  0  0  0
    7.2770    0.9920    0.0000 C   0  0  1  0  0  0
    7.2770   -0.0160    0.0000 C   0  0
   10.6330    1.0760    0.0000 C   0  0
   10.6330   -0.0990    0.0000 C   0  0
    9.5460   -1.2720    0.0000 C   0  0
    5.6050    1.4440    0.0000 C   0  0
    4.8990    2.1530    0.0000 C   0  0
    3.9330    1.8960    0.0000 C   0  0
    3.6720    0.9310    0.0000 C   0  0
    3.2270    2.6040    0.0000 C   0  0
    2.7060    0.6740    0.0000 C   0  0
    2.2610    2.3480    0.0000 C   0  0
    2.0000    1.3820    0.0000 C   0  0
    8.1540    1.8280    0.0000 H   0  0
    8.7980   -0.7590    0.0000 H   0  0
    6.7040    0.7560    0.0000 H   0  0
   10.9980    0.5750    0.0000 H   0  0
   11.1350    1.4410    0.0000 H   0  0
   10.2690    1.5780    0.0000 H   0  0
   10.2690   -0.6010    0.0000 H   0  0
   11.1350   -0.4640    0.0000 H   0  0
   10.9980    0.4020    0.0000 H   0  0
    6.7330    2.3000    0.0000 H   0  0
    9.0680   -2.6040    0.0000 H   0  0
    5.4080    2.5070    0.0000 H   0  0
    4.6380    2.7150    0.0000 H   0  0
    4.1100    0.4910    0.0000 H   0  0
    3.3890    3.2030    0.0000 H   0  0
    2.5440    0.0750    0.0000 H   0  0
    1.8230    2.7870    0.0000 H   0  0
    1.4010    1.2230    0.0000 H   0  0
  1  8  1  0
  1  9  1  0
  2 12  2  0
  3 15  1  0
  3 34  1  0
  4 15  2  0
  5 16  2  0
  6  8  1  0
  6 10  1  0
  6 12  1  0
 11  7  1  1
  7 16  1  0
  7 33  1  0
  8 11  1  0
  8 24  1  6
  9 10  1  0
  9 13  1  0
  9 14  1  0
 10 15  1  6
 10 25  1  1
 11 12  1  0
 11 26  1  6
 13 27  1  0
 13 28  1  0
 13 29  1  0
 14 30  1  0
 14 31  1  0
 14 32  1  0
 16 17  1  0
 17 18  1  0
 17 35  1  0
 17 36  1  0
 18 19  2  0
 18 20  1  0
 19 21  1  0
 19 37  1  0
 20 22  2  0
 20 38  1  0
 21 23  2  0
 21 39  1  0
 22 23  1  0
 22 40  1  0
 23 41  1  0
M  END
> <Name>
5904

> <PUBCHEM_COMPOUND_CID>
5904

> <Toxicity>
0

> <Data Set>
TrainingSet

$$$$
439693
  SciTegic12242523262D

 35 37  0  0  1  0            999 V2000
    6.3890   -0.9400    0.0000 O   0  0
    5.1210   -3.1960    0.0000 O   0  0
    8.1080   -2.1270    0.0000 O   0  0
    3.6420    3.2340    0.0000 O   0  0
    5.1330    0.3240    0.0000 N   0  0
    5.1410    1.9330    0.0000 N   0  0
    3.4030    0.0140    0.0000 N   0  0
    2.0000    1.1440    0.0000 N   0  0
    5.4390   -0.6280    0.0000 C   0  0  1  0  0  0
    4.8480   -1.4350    0.0000 C   0  0
    5.4340   -2.2460    0.0000 C   0  0  1  0  0  0
    6.3860   -1.9400    0.0000 C   0  0  1  0  0  0
    7.1930   -2.5310    0.0000 C   0  0
    4.1880    0.6330    0.0000 C   0  0
    4.1930    1.6330    0.0000 C   0  0
    5.7200    1.1260    0.0000 C   0  0
    3.4140    2.2610    0.0000 C   0  0  1  0  0  0
    2.4380    2.0430    0.0000 C   0  0
    2.4290    0.2410    0.0000 C   0  0
    5.8790   -0.1910    0.0000 H   0  0
    4.3890   -1.0190    0.0000 H   0  0
    4.3860   -1.8490    0.0000 H   0  0
    5.8700   -2.6860    0.0000 H   0  0
    6.9390   -1.6610    0.0000 H   0  0
    6.7450   -2.9600    0.0000 H   0  0
    7.5380   -3.0460    0.0000 H   0  0
    6.3400    1.1220    0.0000 H   0  0
    2.9780    2.7010    0.0000 H   0  0
    5.5350   -3.6580    0.0000 H   0  0
    3.5380   -0.5920    0.0000 H   0  0
    2.4420    2.6630    0.0000 H   0  0
    1.8350    2.1840    0.0000 H   0  0
    8.6080   -2.4930    0.0000 H   0  0
    2.0400   -0.2420    0.0000 H   0  0
    3.1890    3.6580    0.0000 H   0  0
  1  9  1  0
  1 12  1  0
 11  2  1  1
  2 29  1  0
  3 13  1  0
  3 33  1  0
 17  4  1  1
  4 35  1  0
  9  5  1  6
  5 14  1  0
  5 16  1  0
  6 15  1  0
  6 16  2  0
  7 14  1  0
  7 19  1  0
  7 30  1  0
  8 18  1  0
  8 19  2  0
  9 10  1  0
  9 20  1  1
 10 11  1  0
 10 21  1  0
 10 22  1  0
 11 12  1  0
 11 23  1  6
 12 13  1  6
 12 24  1  1
 13 25  1  0
 13 26  1  0
 14 15  2  0
 15 17  1  0
 16 27  1  0
 17 18  1  0
 17 28  1  6
 18 31  1  0
 18 32  1  0
 19 34  1  0
M  END
> <Name>
439693

> <PUBCHEM_COMPOUND_CID>
439693

> <Toxicity>
1

> <Data Set>
TrainingSet

$$$$
4740
  SciTegic12242523262D

 38 39  0  0  0  0            999 V2000
    8.0620    2.0000    0.0000 O   0  0
    6.3300   -1.0000    0.0000 O   0  0
    2.8660    2.0000    0.0000 O   0  0
    7.1960    0.5000    0.0000 N   0  0
    8.0620   -1.0000    0.0000 N   0  0
    9.8740    0.8050    0.0000 N   0  0
    9.8740   -0.8050    0.0000 N   0  0
    6.3300    1.0000    0.0000 C   0  0
    5.4640    0.5000    0.0000 C   0  0
    4.5980    1.0000    0.0000 C   0  0
    8.9280    0.5000    0.0000 C   0  0
    8.0620    1.0000    0.0000 C   0  0
    8.9280   -0.5000    0.0000 C   0  0
    7.1960   -0.5000    0.0000 C   0  0
    3.7320    0.5000    0.0000 C   0  0
   10.4580    0.0000    0.0000 C   0  0
    8.0620   -2.0000    0.0000 C   0  0
   10.1850    1.7550    0.0000 C   0  0
    2.8660    1.0000    0.0000 C   0  0
    2.0000    0.5000    0.0000 C   0  0
    6.7290    1.4750    0.0000 H   0  0
    5.9320    1.4750    0.0000 H   0  0
    5.0660    0.0250    0.0000 H   0  0
    5.8630    0.0250    0.0000 H   0  0
    4.9970    1.4750    0.0000 H   0  0
    4.2000    1.4750    0.0000 H   0  0
    3.3340    0.0250    0.0000 H   0  0
    4.1310    0.0250    0.0000 H   0  0
   11.0780    0.0000    0.0000 H   0  0
    7.4420   -2.0000    0.0000 H   0  0
    8.0620   -2.6200    0.0000 H   0  0
    8.6820   -2.0000    0.0000 H   0  0
   10.7740    1.5630    0.0000 H   0  0
   10.3780    2.3450    0.0000 H   0  0
    9.5960    1.9480    0.0000 H   0  0
    1.6900    1.0370    0.0000 H   0  0
    1.4630    0.1900    0.0000 H   0  0
    2.3100   -0.0370    0.0000 H   0  0
  1 12  2  0
  2 14  2  0
  3 19  2  0
  4  8  1  0
  4 12  1  0
  4 14  1  0
  5 13  1  0
  5 14  1  0
  5 17  1  0
  6 11  1  0
  6 16  1  0
  6 18  1  0
  7 13  1  0
  7 16  2  0
  8  9  1  0
  8 21  1  0
  8 22  1  0
  9 10  1  0
  9 23  1  0
  9 24  1  0
 10 15  1  0
 10 25  1  0
 10 26  1  0
 11 12  1  0
 11 13  2  0
 15 19  1  0
 15 27  1  0
 15 28  1  0
 16 29  1  0
 17 30  1  0
 17 31  1  0
 17 32  1  0
 18 33  1  0
 18 34  1  0
 18 35  1  0
 19 20  1  0
 20 36  1  0
 20 37  1  0
 20 38  1  0
M  END
> <Name>
4740

> <PUBCHEM_COMPOUND_CID>
4740

> <Toxicity>
0

> <Data Set>
TestSet

$$$$
40326
  SciTegic12242523262D

 46 48  0  0  1  0            999 V2000
    3.8660   -5.1830    0.0000 Cl  0  0
    5.5980   -5.1830    0.0000 Cl  0  0
    4.2320   -0.8170    0.0000 O   0  0
    2.5000   -0.8170    0.0000 O   0  0
    5.9640    3.1830    0.0000 O   0  0
    2.8660   -3.1830    0.0000 C   0  0
    3.8660   -3.1830    0.0000 C   0  0
    3.3660   -2.3170    0.0000 C   0  0
    2.8660   -4.1830    0.0000 C   0  0
    2.0000   -2.6830    0.0000 C   0  0
    4.7320   -3.6830    0.0000 C   0  0
    3.3660   -1.3170    0.0000 C   0  0
    4.7320   -4.6830    0.0000 C   0  0
    4.2320    0.1830    0.0000 C   0  0
    5.0980    0.6830    0.0000 C   0  0
    5.0980    1.6830    0.0000 C   0  0
    5.9640    0.1830    0.0000 C   0  0
    5.9640    2.1830    0.0000 C   0  0
    6.8300    0.6830    0.0000 C   0  0
    6.8300    1.6830    0.0000 C   0  0
    6.8300    3.6830    0.0000 C   0  0
    6.8300    4.6830    0.0000 C   0  0
    7.6960    3.1830    0.0000 C   0  0
    7.6960    5.1830    0.0000 C   0  0
    8.5620    3.6830    0.0000 C   0  0
    8.5620    4.6830    0.0000 C   0  0
    3.7060   -3.7820    0.0000 H   0  0
    3.9650   -2.1560    0.0000 H   0  0
    2.2460   -4.1830    0.0000 H   0  0
    2.8660   -4.8030    0.0000 H   0  0
    3.4860   -4.1830    0.0000 H   0  0
    2.3100   -2.1460    0.0000 H   0  0
    1.4630   -2.3730    0.0000 H   0  0
    1.6900   -3.2200    0.0000 H   0  0
    5.2690   -3.3730    0.0000 H   0  0
    4.0200    0.7660    0.0000 H   0  0
    3.6220    0.0750    0.0000 H   0  0
    4.5610    1.9930    0.0000 H   0  0
    5.9640   -0.4370    0.0000 H   0  0
    7.3670    0.3730    0.0000 H   0  0
    7.3670    1.9930    0.0000 H   0  0
    6.2930    4.9930    0.0000 H   0  0
    7.6960    2.5630    0.0000 H   0  0
    7.6960    5.8030    0.0000 H   0  0
    9.0990    3.3730    0.0000 H   0  0
    9.0990    4.9930    0.0000 H   0  0
  1 13  1  0
  2 13  1  0
  3 12  1  0
  3 14  1  0
  4 12  2  0
  5 18  1  0
  5 21  1  0
  6  7  1  0
  6  8  1  0
  6  9  1  0
  6 10  1  0
  7  8  1  0
  7 11  1  0
  7 27  1  0
  8 12  1  0
  8 28  1  0
  9 29  1  0
  9 30  1  0
  9 31  1  0
 10 32  1  0
 10 33  1  0
 10 34  1  0
 11 13  2  0
 11 35  1  0
 14 15  1  0
 14 36  1  0
 14 37  1  0
 15 16  2  0
 15 17  1  0
 16 18  1  0
 16 38  1  0
 17 19  2  0
 17 39  1  0
 18 20  2  0
 19 20  1  0
 19 40  1  0
 20 41  1  0
 21 22  2  0
 21 23  1  0
 22 24  1  0
 22 42  1  0
 23 25  2  0
 23 43  1  0
 24 26  2  0
 24 44  1  0
 25 26  1  0
 25 45  1  0
 26 46  1  0
M  END
> <Name>
40326

> <PUBCHEM_COMPOUND_CID>
40326

> <Toxicity>
0

> <Data Set>
TrainingSet

$$$$
4763
  SciTegic12242523262D

 29 30  0  0  0  0            999 V2000
    2.0000    0.2010    0.0000 O   0  0
    5.4640    0.2010    0.0000 O   0  0
    3.7320   -2.7990    0.0000 O   0  0
    2.8660   -1.2990    0.0000 N   0  0
    4.5980   -1.2990    0.0000 N   0  0
    3.7320    0.2010    0.0000 C   0  0
    3.2320    1.0670    0.0000 C   0  0
    4.2320    1.0670    0.0000 C   0  0
    2.8660   -0.2990    0.0000 C   0  0
    4.5980   -0.2990    0.0000 C   0  0
    2.2320    1.0670    0.0000 C   0  0
    3.7320    1.9330    0.0000 C   0  0
    5.2320    1.0670    0.0000 C   0  0
    3.7320   -1.7990    0.0000 C   0  0
    4.2320    2.7990    0.0000 C   0  0
    5.7320    1.9330    0.0000 C   0  0
    5.2320    2.7990    0.0000 C   0  0
    3.8150    1.2790    0.0000 H   0  0
    3.1240    1.6780    0.0000 H   0  0
    2.2320    1.6870    0.0000 H   0  0
    1.6120    1.0670    0.0000 H   0  0
    2.2320    0.4470    0.0000 H   0  0
    2.3290   -1.6090    0.0000 H   0  0
    5.1350   -1.6090    0.0000 H   0  0
    3.1120    1.9330    0.0000 H   0  0
    5.5420    0.5300    0.0000 H   0  0
    3.9220    3.3360    0.0000 H   0  0
    6.3520    1.9330    0.0000 H   0  0
    5.5420    3.3360    0.0000 H   0  0
  1  9  2  0
  2 10  2  0
  3 14  2  0
  4  9  1  0
  4 14  1  0
  4 23  1  0
  5 10  1  0
  5 14  1  0
  5 24  1  0
  6  7  1  0
  6  8  1  0
  6  9  1  0
  6 10  1  0
  7 11  1  0
  7 18  1  0
  7 19  1  0
  8 12  2  0
  8 13  1  0
 11 20  1  0
 11 21  1  0
 11 22  1  0
 12 15  1  0
 12 25  1  0
 13 16  2  0
 13 26  1  0
 15 17  2  0
 15 27  1  0
 16 17  1  0
 16 28  1  0
 17 29  1  0
M  END
> <Name>
4763

> <PUBCHEM_COMPOUND_CID>
4763

> <Toxicity>
1

> <Data Set>
TestSet

$$$$
996
  SciTegic12242523262D

 13 13  0  0  0  0            999 V2000
    2.8660    1.3450    0.0000 O   0  0
    2.8660    0.3450    0.0000 C   0  0
    3.7320   -0.1550    0.0000 C   0  0
    2.0000   -0.1550    0.0000 C   0  0
    3.7320   -1.1550    0.0000 C   0  0
    2.0000   -1.1550    0.0000 C   0  0
    2.8660   -1.6550    0.0000 C   0  0
    4.2690    0.1550    0.0000 H   0  0
    1.4630    0.1550    0.0000 H   0  0
    4.2690   -1.4650    0.0000 H   0  0
    1.4630   -1.4650    0.0000 H   0  0
    2.8660   -2.2750    0.0000 H   0  0
    3.4030    1.6550    0.0000 H   0  0
  1  2  1  0
  1 13  1  0
  2  3  2  0
  2  4  1  0
  3  5  1  0
  3  8  1  0
  4  6  2  0
  4  9  1  0
  5  7  2  0
  5 10  1  0
  6  7  1  0
  6 11  1  0
  7 12  1  0
M  END
> <Name>
996

> <PUBCHEM_COMPOUND_CID>
996

> <Toxicity>
1

> <Data Set>
TrainingSet

$$$$
4771
  SciTegic12242523262D

 26 26  0  0  0  0            999 V2000
    4.5980    1.6900    0.0000 N   0  0
    3.7320    1.1900    0.0000 C   0  0
    2.8660    0.6900    0.0000 C   0  0
    3.2320    2.0560    0.0000 C   0  0
    4.2320    0.3240    0.0000 C   0  0
    2.8660   -0.3100    0.0000 C   0  0
    3.7320   -0.8100    0.0000 C   0  0
    2.0000   -0.8100    0.0000 C   0  0
    3.7320   -1.8100    0.0000 C   0  0
    2.0000   -1.8100    0.0000 C   0  0
    2.8660   -2.3100    0.0000 C   0  0
    2.6540    1.2730    0.0000 H   0  0
    2.2550    0.5820    0.0000 H   0  0
    3.7690    2.3660    0.0000 H   0  0
    2.9220    2.5930    0.0000 H   0  0
    2.6950    1.7460    0.0000 H   0  0
    3.6950    0.0140    0.0000 H   0  0
    4.5420   -0.2130    0.0000 H   0  0
    4.7690    0.6340    0.0000 H   0  0
    4.5980    2.3100    0.0000 H   0  0
    5.1350    1.3800    0.0000 H   0  0
    4.2690   -0.5000    0.0000 H   0  0
    1.4630   -0.5000    0.0000 H   0  0
    4.2690   -2.1200    0.0000 H   0  0
    1.4630   -2.1200    0.0000 H   0  0
    2.8660   -2.9300    0.0000 H   0  0
  1  2  1  0
  1 20  1  0
  1 21  1  0
  2  3  1  0
  2  4  1  0
  2  5  1  0
  3  6  1  0
  3 12  1  0
  3 13  1  0
  4 14  1  0
  4 15  1  0
  4 16  1  0
  5 17  1  0
  5 18  1  0
  5 19  1  0
  6  7  2  0
  6  8  1  0
  7  9  1  0
  7 22  1  0
  8 10  2  0
  8 23  1  0
  9 11  2  0
  9 24  1  0
 10 11  1  0
 10 25  1  0
 11 26  1  0
M  END
> <Name>
4771

> <PUBCHEM_COMPOUND_CID>
4771

> <Toxicity>
1

> <Data Set>
TrainingSet

$$$$
1775
  SciTegic12242523262D

 31 33  0  0  0  0            999 V2000
    4.2450    2.1560    0.0000 O   0  0
    7.5530    0.9520    0.0000 O   0  0
    5.9380    0.1990    0.0000 N   0  0
    5.9940    1.8160    0.0000 N   0  0
    4.9980    0.5410    0.0000 C   0  0
    4.6560   -0.3990    0.0000 C   0  0
    3.9990    0.5760    0.0000 C   0  0
    5.0330    1.5400    0.0000 C   0  0
    6.5540    0.9870    0.0000 C   0  0
    3.7900   -0.8990    0.0000 C   0  0
    3.5290    1.4590    0.0000 C   0  0
    5.5220   -0.8990    0.0000 C   0  0
    3.4690   -0.2720    0.0000 C   0  0
    3.7900   -1.8990    0.0000 C   0  0
    2.5300    1.4940    0.0000 C   0  0
    5.5220   -1.8990    0.0000 C   0  0
    2.4700   -0.2370    0.0000 C   0  0
    4.6560   -2.3990    0.0000 C   0  0
    2.0000    0.6460    0.0000 C   0  0
    6.1090   -0.3970    0.0000 H   0  0
    6.2060    2.3990    0.0000 H   0  0
    3.2530   -0.5890    0.0000 H   0  0
    3.8580    1.9850    0.0000 H   0  0
    6.0590   -0.5890    0.0000 H   0  0
    3.7600   -0.8200    0.0000 H   0  0
    3.2530   -2.2090    0.0000 H   0  0
    2.2390    2.0410    0.0000 H   0  0
    6.0590   -2.2090    0.0000 H   0  0
    2.1410   -0.7630    0.0000 H   0  0
    4.6560   -3.0190    0.0000 H   0  0
    1.3800    0.6670    0.0000 H   0  0
  1  8  2  0
  2  9  2  0
  3  5  1  0
  3  9  1  0
  3 20  1  0
  4  8  1  0
  4  9  1  0
  4 21  1  0
  5  6  1  0
  5  7  1  0
  5  8  1  0
  6 10  2  0
  6 12  1  0
  7 11  2  0
  7 13  1  0
 10 14  1  0
 10 22  1  0
 11 15  1  0
 11 23  1  0
 12 16  2  0
 12 24  1  0
 13 17  2  0
 13 25  1  0
 14 18  2  0
 14 26  1  0
 15 19  2  0
 15 27  1  0
 16 18  1  0
 16 28  1  0
 17 19  1  0
 17 29  1  0
 18 30  1  0
 19 31  1  0
M  END
> <Name>
1775

> <PUBCHEM_COMPOUND_CID>
1775

> <Toxicity>
0

> <Data Set>
TestSet

$$$$
5284607
  SciTegic12242523262D

 79 80  0  0  1  0            999 V2000
   16.7220   -2.0000    0.0000 O   0  0
   16.7220    2.0000    0.0000 O   0  0
    6.3300   -1.0000    0.0000 C   0  0  1  0  0  0
    7.1960   -0.5000    0.0000 C   0  0
    9.7940   -1.0000    0.0000 C   0  0  2  0  0  0
    8.0620   -1.0000    0.0000 C   0  0
    8.9280   -0.5000    0.0000 C   0  0
    5.4640   -0.5000    0.0000 C   0  0
   10.6600   -0.5000    0.0000 C   0  0
    4.5980   -1.0000    0.0000 C   0  0
    3.7320   -0.5000    0.0000 C   0  0
    6.3300   -2.0000    0.0000 C   0  0
   11.5260   -1.0000    0.0000 C   0  0
    9.7940   -2.0000    0.0000 C   0  0
    2.8660   -1.0000    0.0000 C   0  0
   12.3920   -0.5000    0.0000 C   0  0
    2.0000   -0.5000    0.0000 C   0  0
    2.8660   -2.0000    0.0000 C   0  0
   13.2580   -1.0000    0.0000 C   0  0
   14.1240   -0.5000    0.0000 C   0  0
   13.2580   -2.0000    0.0000 C   0  0
   14.9900   -1.0000    0.0000 C   0  0
   15.8560   -0.5000    0.0000 C   0  0
   15.8560    0.5000    0.0000 C   0  0
   16.7220   -1.0000    0.0000 C   0  0
   17.5880   -0.5000    0.0000 C   0  0
   17.5880    0.5000    0.0000 C   0  0
   16.7220    1.0000    0.0000 C   0  0
   14.9900    1.0000    0.0000 C   0  0
   18.4820   -1.0350    0.0000 C   0  0
   18.4820    1.0350    0.0000 C   0  0
   19.3880   -0.5210    0.0000 C   0  0
   19.3880    0.5210    0.0000 C   0  0
    6.8670   -1.3100    0.0000 H   0  0
    7.5950   -0.0250    0.0000 H   0  0
    6.7980   -0.0250    0.0000 H   0  0
    9.2570   -1.3100    0.0000 H   0  0
    7.6640   -1.4750    0.0000 H   0  0
    8.4610   -1.4750    0.0000 H   0  0
    9.3270   -0.0250    0.0000 H   0  0
    8.5300   -0.0250    0.0000 H   0  0
    5.8630   -0.0250    0.0000 H   0  0
    5.0660   -0.0250    0.0000 H   0  0
   11.0590   -0.0250    0.0000 H   0  0
   10.2620   -0.0250    0.0000 H   0  0
    4.2000   -1.4750    0.0000 H   0  0
    4.9970   -1.4750    0.0000 H   0  0
    4.1310   -0.0250    0.0000 H   0  0
    3.3340   -0.0250    0.0000 H   0  0
    5.7100   -2.0000    0.0000 H   0  0
    6.3300   -2.6200    0.0000 H   0  0
    6.9500   -2.0000    0.0000 H   0  0
   11.1280   -1.4750    0.0000 H   0  0
   11.9250   -1.4750    0.0000 H   0  0
    9.1740   -2.0000    0.0000 H   0  0
    9.7940   -2.6200    0.0000 H   0  0
   10.4140   -2.0000    0.0000 H   0  0
    2.8660   -0.3800    0.0000 H   0  0
   12.7910   -0.0250    0.0000 H   0  0
   11.9940   -0.0250    0.0000 H   0  0
    2.3100    0.0370    0.0000 H   0  0
    1.4630   -0.1900    0.0000 H   0  0
    1.6900   -1.0370    0.0000 H   0  0
    2.2460   -2.0000    0.0000 H   0  0
    2.8660   -2.6200    0.0000 H   0  0
    3.4860   -2.0000    0.0000 H   0  0
   14.1240    0.1200    0.0000 H   0  0
   12.6380   -2.0000    0.0000 H   0  0
   13.2580   -2.6200    0.0000 H   0  0
   13.8780   -2.0000    0.0000 H   0  0
   14.5920   -1.4750    0.0000 H   0  0
   15.3890   -1.4750    0.0000 H   0  0
   15.3000    1.5370    0.0000 H   0  0
   14.4530    1.3100    0.0000 H   0  0
   14.6800    0.4630    0.0000 H   0  0
   18.4750   -1.6550    0.0000 H   0  0
   18.4750    1.6550    0.0000 H   0  0
   19.9240   -0.8330    0.0000 H   0  0
   19.9240    0.8330    0.0000 H   0  0
  1 25  2  0
  2 28  2  0
  3  4  1  0
  3  8  1  0
  3 12  1  6
  3 34  1  1
  4  6  1  0
  4 35  1  0
  4 36  1  0
  5  7  1  6
  5  9  1  0
  5 14  1  0
  5 37  1  1
  6  7  1  0
  6 38  1  0
  6 39  1  0
  7 40  1  0
  7 41  1  0
  8 10  1  0
  8 42  1  0
  8 43  1  0
  9 13  1  0
  9 44  1  0
  9 45  1  0
 10 11  1  0
 10 46  1  0
 10 47  1  0
 11 15  1  0
 11 48  1  0
 11 49  1  0
 12 50  1  0
 12 51  1  0
 12 52  1  0
 13 16  1  0
 13 53  1  0
 13 54  1  0
 14 55  1  0
 14 56  1  0
 14 57  1  0
 15 17  1  0
 15 18  1  0
 15 58  1  0
 16 19  1  0
 16 59  1  0
 16 60  1  0
 17 61  1  0
 17 62  1  0
 17 63  1  0
 18 64  1  0
 18 65  1  0
 18 66  1  0
 19 20  2  0
 19 21  1  0
 20 22  1  0
 20 67  1  0
 21 68  1  0
 21 69  1  0
 21 70  1  0
 22 23  1  0
 22 71  1  0
 22 72  1  0
 23 24  2  0
 23 25  1  0
 24 28  1  0
 24 29  1  0
 25 26  1  0
 26 27  1  0
 26 30  2  0
 27 28  1  0
 27 31  2  0
 29 73  1  0
 29 74  1  0
 29 75  1  0
 30 32  1  0
 30 76  1  0
 31 33  1  0
 31 77  1  0
 32 33  2  0
 32 78  1  0
 33 79  1  0
M  END
> <Name>
5284607

> <PUBCHEM_COMPOUND_CID>
5284607

> <Toxicity>
0

> <Data Set>
TestSet

$$$$
6509979
  SciTegic12242523262D

124127  0  0  1  0            999 V2000
   10.4820    3.6480    0.0000 Cl  0  0
    6.1800   -2.9250    0.0000 O   0  0
    4.9540   -4.3770    0.0000 O   0  0
    4.4480   -3.9250    0.0000 O   0  0
    6.1800   -1.9250    0.0000 O   0  0
    5.9040   -0.6780    0.0000 O   0  0
    8.7060   -3.5330    0.0000 O   0  0
    8.7500    4.6480    0.0000 O   0  0
    9.4210   -2.5740    0.0000 O   0  0
    5.8040    2.4640    0.0000 O   0  0
    7.6360   -1.6780    0.0000 O   0  0
    2.4400    2.3220    0.0000 O   0  0
    8.5020   -1.1780    0.0000 N   0  0
    5.3140   -2.4250    0.0000 C   0  0  1  0  0  0
    7.0580   -3.4400    0.0000 C   0  0  2  0  0  0
    5.3030   -3.4400    0.0000 C   0  0  2  0  0  0
    6.1800   -3.9520    0.0000 C   0  0
    7.0460   -2.4250    0.0000 C   0  0  2  0  0  0
    4.4480   -2.9250    0.0000 C   0  0  2  0  0  0
    3.5820   -2.4250    0.0000 C   0  0
    2.6160   -2.6830    0.0000 C   0  0  2  0  0  0
    7.4080   -4.3770    0.0000 C   0  0
    7.9130   -2.9250    0.0000 C   0  0
    7.8830    2.1480    0.0000 C   0  0  1  0  0  0
    7.6360   -0.6780    0.0000 C   0  0  1  0  0  0
    7.8830    3.1480    0.0000 C   0  0
    8.7500    1.6480    0.0000 C   0  0
    8.7500    3.6480    0.0000 C   0  0  2  0  0  0
    2.3580   -1.7180    0.0000 C   0  0
    8.5020   -2.1780    0.0000 C   0  0
    9.6160    2.1480    0.0000 C   0  0
    9.6160    3.1480    0.0000 C   0  0  2  0  0  0
    7.6360    0.3220    0.0000 C   0  0
    9.3680   -0.6780    0.0000 C   0  0
    5.9040    0.3220    0.0000 C   0  0  1  0  0  0
    5.0380    0.8220    0.0000 C   0  0  1  0  0  0
    8.5020    0.8220    0.0000 C   0  0
    9.3680    0.3220    0.0000 C   0  0
    2.1160   -3.5500    0.0000 C   0  0
    7.0170    1.6480    0.0000 C   0  0
    6.8440    0.6640    0.0000 C   0  0
    5.0380    1.8220    0.0000 C   0  0  2  0  0  0
    6.7700   -1.1780    0.0000 C   0  0
    2.8580   -0.8520    0.0000 C   0  0
    5.5900   -5.1480    0.0000 C   0  0
    3.5820   -4.4250    0.0000 C   0  0
    4.1720    2.3220    0.0000 C   0  0
    3.3060    0.8220    0.0000 C   0  0  2  0  0  0
    4.1720    1.3220    0.0000 C   0  0
    2.5990    0.1140    0.0000 C   0  0
    7.7250   -0.0760    0.0000 C   0  0
    3.3060    1.8220    0.0000 C   0  0
    3.8490   -0.9820    0.0000 C   0  0
    4.2300    0.4390    0.0000 C   0  0
    9.6160    5.1480    0.0000 C   0  0
    4.3600   -0.5530    0.0000 C   0  0
    4.8940   -1.6860    0.0000 H   0  0
    7.6680   -3.3270    0.0000 H   0  0
    4.6930   -3.3270    0.0000 H   0  0
    5.7810   -4.4260    0.0000 H   0  0
    6.5800   -4.4260    0.0000 H   0  0
    3.9120   -3.2350    0.0000 H   0  0
    4.0210   -1.9860    0.0000 H   0  0
    3.2720   -1.8880    0.0000 H   0  0
    2.9940   -3.1750    0.0000 H   0  0
    6.8270   -4.5940    0.0000 H   0  0
    7.6240   -4.9580    0.0000 H   0  0
    7.9880   -4.1610    0.0000 H   0  0
    7.3460    2.4580    0.0000 H   0  0
    6.9000   -0.2540    0.0000 H   0  0
    7.6710    3.7310    0.0000 H   0  0
    7.2730    3.0410    0.0000 H   0  0
    8.3510    1.1730    0.0000 H   0  0
    9.1480    1.1730    0.0000 H   0  0
    8.2120    3.9580    0.0000 H   0  0
    1.9190   -1.2790    0.0000 H   0  0
    1.8210   -2.0270    0.0000 H   0  0
    9.8280    1.5660    0.0000 H   0  0
   10.2260    2.2560    0.0000 H   0  0
    9.6160    3.7680    0.0000 H   0  0
    6.1800   -1.3050    0.0000 H   0  0
    7.4240    0.9040    0.0000 H   0  0
    7.0260    0.2140    0.0000 H   0  0
    9.5800   -1.2610    0.0000 H   0  0
    9.9790   -0.5710    0.0000 H   0  0
    6.4120   -0.0340    0.0000 H   0  0
    4.7280    0.2850    0.0000 H   0  0
    8.9010    1.2960    0.0000 H   0  0
    8.1040    1.2960    0.0000 H   0  0
    9.9790    0.2140    0.0000 H   0  0
    9.5800    0.9040    0.0000 H   0  0
    1.5800   -3.2400    0.0000 H   0  0
    1.8060   -4.0860    0.0000 H   0  0
    2.6540   -3.8600    0.0000 H   0  0
    6.5420    2.0470    0.0000 H   0  0
    5.6000    1.5600    0.0000 H   0  0
    5.1120   -5.5430    0.0000 H   0  0
    5.9850   -5.6260    0.0000 H   0  0
    6.0680   -4.7540    0.0000 H   0  0
    4.5700    2.7960    0.0000 H   0  0
    3.7740    2.7960    0.0000 H   0  0
    3.2720   -3.8880    0.0000 H   0  0
    3.0460   -4.7350    0.0000 H   0  0
    3.8920   -4.9620    0.0000 H   0  0
    3.8220    1.1660    0.0000 H   0  0
    4.4820    1.8580    0.0000 H   0  0
    3.6350    1.6320    0.0000 H   0  0
    3.8620    0.7850    0.0000 H   0  0
    2.0000    0.2750    0.0000 H   0  0
    7.3260   -0.5510    0.0000 H   0  0
    8.2000   -0.4740    0.0000 H   0  0
    8.1230    0.3990    0.0000 H   0  0
    3.7680   -1.5970    0.0000 H   0  0
    4.4640   -1.0630    0.0000 H   0  0
    3.9300   -0.3670    0.0000 H   0  0
    4.8490    0.4120    0.0000 H   0  0
    4.3640    1.0440    0.0000 H   0  0
    5.6960    3.0750    0.0000 H   0  0
    9.9260    4.6110    0.0000 H   0  0
   10.1520    5.4580    0.0000 H   0  0
    9.3060    5.6850    0.0000 H   0  0
    3.7460   -0.6340    0.0000 H   0  0
    4.4410   -1.1670    0.0000 H   0  0
    4.9750   -0.4720    0.0000 H   0  0
 32  1  1  1
  2 14  1  0
  2 18  1  0
 16  3  1  6
  3 45  1  0
 19  4  1  1
  4 46  1  0
 18  5  1  6
  5 81  1  0
  6 35  1  0
  6 43  1  0
  7 23  2  0
 28  8  1  1
  8 55  1  0
  9 30  2  0
 42 10  1  6
 10118  1  0
 11 43  2  0
 12 52  2  0
 13 25  1  0
 13 30  1  0
 13 34  1  0
 14 16  1  0
 14 19  1  0
 14 57  1  6
 15 17  1  0
 15 18  1  0
 15 22  1  6
 15 58  1  1
 16 17  1  0
 16 59  1  1
 17 60  1  0
 17 61  1  0
 18 23  1  0
 19 20  1  0
 19 62  1  6
 20 21  1  0
 20 63  1  0
 20 64  1  0
 21 29  1  0
 21 39  1  1
 21 65  1  6
 22 66  1  0
 22 67  1  0
 22 68  1  0
 23 30  1  0
 24 26  1  0
 24 27  1  0
 24 40  1  1
 24 69  1  6
 25 33  1  0
 25 43  1  0
 25 70  1  1
 26 28  1  0
 26 71  1  0
 26 72  1  0
 27 31  1  0
 27 73  1  0
 27 74  1  0
 28 32  1  0
 28 75  1  6
 29 44  1  0
 29 76  1  0
 29 77  1  0
 31 32  1  0
 31 78  1  0
 31 79  1  0
 32 80  1  6
 33 37  1  0
 33 82  1  0
 33 83  1  0
 34 38  1  0
 34 84  1  0
 34 85  1  0
 35 36  1  0
 35 41  1  1
 35 86  1  6
 36 42  1  0
 36 49  1  6
 36 87  1  1
 37 38  1  0
 37 88  1  0
 37 89  1  0
 38 90  1  0
 38 91  1  0
 39 92  1  0
 39 93  1  0
 39 94  1  0
 40 41  2  0
 40 95  1  0
 41 51  1  0
 42 47  1  0
 42 96  1  1
 44 50  2  0
 44 53  1  0
 45 97  1  0
 45 98  1  0
 45 99  1  0
 46102  1  0
 46103  1  0
 46104  1  0
 47 52  1  0
 47100  1  0
 47101  1  0
 48 50  1  0
 48 52  1  0
 48 54  1  6
 48105  1  1
 49106  1  0
 49107  1  0
 49108  1  0
 50109  1  0
 51110  1  0
 51111  1  0
 51112  1  0
 53113  1  0
 53114  1  0
 53115  1  0
 54 56  1  0
 54116  1  0
 54117  1  0
 55119  1  0
 55120  1  0
 55121  1  0
 56122  1  0
 56123  1  0
 56124  1  0
M  END
> <Name>
6509979

> <PUBCHEM_COMPOUND_CID>
6509979

> <Toxicity>
0

> <Data Set>
TrainingSet

$$$$
16362
  SciTegic12242523262D

 63 67  0  0  0  0            999 V2000
    9.4310    5.5830    0.0000 F   0  0
   10.8600   -1.1960    0.0000 F   0  0
    6.2620   -4.1890    0.0000 O   0  0
    5.6100   -0.5330    0.0000 N   0  0
    4.6780   -3.3840    0.0000 N   0  0
    4.6780   -4.9940    0.0000 N   0  0
    4.9890   -2.4340    0.0000 C   0  0
    4.3210   -1.6890    0.0000 C   0  0
    5.9670   -2.2270    0.0000 C   0  0
    4.6320   -0.7390    0.0000 C   0  0
    6.2780   -1.2770    0.0000 C   0  0
    5.9210    0.4180    0.0000 C   0  0
    6.8990    0.6240    0.0000 C   0  0
    3.7320   -3.6890    0.0000 C   0  0
    7.2100    1.5750    0.0000 C   0  0
    5.2620   -4.1890    0.0000 C   0  0
    8.1890    1.7810    0.0000 C   0  0
    3.7320   -4.6890    0.0000 C   0  0
    2.8660   -3.1890    0.0000 C   0  0
    8.4990    2.7310    0.0000 C   0  0
    8.8560    1.0370    0.0000 C   0  0
    2.8660   -5.1890    0.0000 C   0  0
    2.0000   -3.6890    0.0000 C   0  0
    2.0000   -4.6890    0.0000 C   0  0
    9.4780    2.9380    0.0000 C   0  0
    9.8350    1.2430    0.0000 C   0  0
    7.8310    3.4760    0.0000 C   0  0
    8.5460    0.0860    0.0000 C   0  0
    9.7880    3.8880    0.0000 C   0  0
   10.5030    0.4980    0.0000 C   0  0
    8.1420    4.4260    0.0000 C   0  0
    9.2140   -0.6580    0.0000 C   0  0
    9.1210    4.6320    0.0000 C   0  0
   10.1920   -0.4520    0.0000 C   0  0
    5.4030   -2.8950    0.0000 H   0  0
    3.7740   -1.3970    0.0000 H   0  0
    3.9380   -2.1770    0.0000 H   0  0
    5.9880   -2.8470    0.0000 H   0  0
    6.5810   -2.3150    0.0000 H   0  0
    4.6110   -0.1190    0.0000 H   0  0
    4.0180   -0.6520    0.0000 H   0  0
    6.8250   -1.5690    0.0000 H   0  0
    6.6610   -0.7890    0.0000 H   0  0
    5.9000    1.0380    0.0000 H   0  0
    5.3070    0.5050    0.0000 H   0  0
    6.9200    0.0040    0.0000 H   0  0
    7.5130    0.5370    0.0000 H   0  0
    7.1900    2.1940    0.0000 H   0  0
    6.5960    1.6620    0.0000 H   0  0
    7.9960    1.1920    0.0000 H   0  0
    4.8710   -5.5830    0.0000 H   0  0
    2.8660   -2.5690    0.0000 H   0  0
    2.8660   -5.8090    0.0000 H   0  0
    1.4630   -3.3790    0.0000 H   0  0
    1.4630   -4.9990    0.0000 H   0  0
    9.8920    2.4760    0.0000 H   0  0
   10.0280    1.8320    0.0000 H   0  0
    7.2250    3.3480    0.0000 H   0  0
    7.9390   -0.0420    0.0000 H   0  0
   10.3950    4.0160    0.0000 H   0  0
   11.1100    0.6260    0.0000 H   0  0
    7.7280    4.8880    0.0000 H   0  0
    9.0210   -1.2480    0.0000 H   0  0
  1 33  1  0
  2 34  1  0
  3 16  2  0
  4 10  1  0
  4 11  1  0
  4 12  1  0
  5  7  1  0
  5 14  1  0
  5 16  1  0
  6 16  1  0
  6 18  1  0
  6 51  1  0
  7  8  1  0
  7  9  1  0
  7 35  1  0
  8 10  1  0
  8 36  1  0
  8 37  1  0
  9 11  1  0
  9 38  1  0
  9 39  1  0
 10 40  1  0
 10 41  1  0
 11 42  1  0
 11 43  1  0
 12 13  1  0
 12 44  1  0
 12 45  1  0
 13 15  1  0
 13 46  1  0
 13 47  1  0
 14 18  2  0
 14 19  1  0
 15 17  1  0
 15 48  1  0
 15 49  1  0
 17 20  1  0
 17 21  1  0
 17 50  1  0
 18 22  1  0
 19 23  2  0
 19 52  1  0
 20 25  2  0
 20 27  1  0
 21 26  2  0
 21 28  1  0
 22 24  2  0
 22 53  1  0
 23 24  1  0
 23 54  1  0
 24 55  1  0
 25 29  1  0
 25 56  1  0
 26 30  1  0
 26 57  1  0
 27 31  2  0
 27 58  1  0
 28 32  2  0
 28 59  1  0
 29 33  2  0
 29 60  1  0
 30 34  2  0
 30 61  1  0
 31 33  1  0
 31 62  1  0
 32 34  1  0
 32 63  1  0
M  END
> <Name>
16362

> <PUBCHEM_COMPOUND_CID>
16362

> <Toxicity>
1

> <Data Set>
TrainingSet

$$$$
43672
  SciTegic12242523262D

 63 66  0  0  1  0            999 V2000
    9.2360   -1.5990    0.0000 S   0  0
    6.5720   -3.6200    0.0000 O   0  0
    8.8760   -4.9110    0.0000 O   0  0
   10.5240   -4.3760    0.0000 O   0  0
    5.3440   -2.4170    0.0000 O   0  0
    3.4880    0.6740    0.0000 O   0  0
    6.3870    1.4440    0.0000 O   0  0
    6.9090    3.3750    0.0000 O   0  0
    8.2850   -2.9080    0.0000 N   0  0
    6.5720   -1.1950    0.0000 N   0  0
    5.1600    0.2220    0.0000 N   0  0
    4.7150    1.8960    0.0000 N   0  0
    5.2370    3.8270    0.0000 N   0  0
    8.2850   -1.9080    0.0000 C   0  0  1  0  0  0
    9.8240   -2.4080    0.0000 C   0  0
    9.2360   -3.2170    0.0000 C   0  0  2  0  0  0
    7.2770   -1.9040    0.0000 C   0  0  1  0  0  0
    7.2770   -2.9120    0.0000 C   0  0
   10.6330   -1.8200    0.0000 C   0  0
   10.6330   -2.9960    0.0000 C   0  0
    9.5460   -4.1680    0.0000 C   0  0
    5.6050   -1.4520    0.0000 C   0  0
    4.8990   -0.7430    0.0000 C   0  0  1  0  0  0
    3.9330   -1.0000    0.0000 C   0  0
    4.4540    0.9310    0.0000 C   0  0
    3.2270   -0.2920    0.0000 C   0  0
    3.6720   -1.9660    0.0000 C   0  0
    4.0100    2.6040    0.0000 C   0  0
    4.2700    3.5700    0.0000 C   0  0
    5.6820    2.1530    0.0000 C   0  0
    2.2610   -0.5480    0.0000 C   0  0
    2.7060   -2.2220    0.0000 C   0  0
    5.9430    3.1180    0.0000 C   0  0
    5.4980    4.7920    0.0000 C   0  0
    2.0000   -1.5140    0.0000 C   0  0
    4.7920    5.5010    0.0000 C   0  0
    8.1540   -1.0680    0.0000 H   0  0
    8.7980   -3.6550    0.0000 H   0  0
    6.7040   -2.1400    0.0000 H   0  0
   10.9980   -2.3220    0.0000 H   0  0
   11.1350   -1.4560    0.0000 H   0  0
   10.2690   -1.3180    0.0000 H   0  0
   10.2690   -3.4970    0.0000 H   0  0
   11.1350   -3.3600    0.0000 H   0  0
   10.9980   -2.4940    0.0000 H   0  0
    6.7330   -0.5970    0.0000 H   0  0
    4.4620   -0.3040    0.0000 H   0  0
    9.0680   -5.5010    0.0000 H   0  0
    5.7590    0.3810    0.0000 H   0  0
    3.3890    0.3070    0.0000 H   0  0
    4.1100   -2.4050    0.0000 H   0  0
    3.4480    2.8680    0.0000 H   0  0
    3.6530    2.0970    0.0000 H   0  0
    4.2180    4.1880    0.0000 H   0  0
    3.6530    3.6250    0.0000 H   0  0
    1.8230   -0.1090    0.0000 H   0  0
    2.5440   -2.8210    0.0000 H   0  0
    6.0590    4.5290    0.0000 H   0  0
    5.8540    5.2990    0.0000 H   0  0
    1.4010   -1.6730    0.0000 H   0  0
    5.2310    5.9380    0.0000 H   0  0
    4.3550    5.9400    0.0000 H   0  0
    4.3530    5.0630    0.0000 H   0  0
  1 14  1  0
  1 15  1  0
  2 18  2  0
  3 21  1  0
  3 48  1  0
  4 21  2  0
  5 22  2  0
  6 25  2  0
  7 30  2  0
  8 33  2  0
  9 14  1  0
  9 16  1  0
  9 18  1  0
 17 10  1  1
 10 22  1  0
 10 46  1  0
 23 11  1  1
 11 25  1  0
 11 49  1  0
 12 25  1  0
 12 28  1  0
 12 30  1  0
 13 29  1  0
 13 33  1  0
 13 34  1  0
 14 17  1  0
 14 37  1  6
 15 16  1  0
 15 19  1  0
 15 20  1  0
 16 21  1  6
 16 38  1  1
 17 18  1  0
 17 39  1  6
 19 40  1  0
 19 41  1  0
 19 42  1  0
 20 43  1  0
 20 44  1  0
 20 45  1  0
 22 23  1  0
 23 24  1  0
 23 47  1  6
 24 26  2  0
 24 27  1  0
 26 31  1  0
 26 50  1  0
 27 32  2  0
 27 51  1  0
 28 29  1  0
 28 52  1  0
 28 53  1  0
 29 54  1  0
 29 55  1  0
 30 33  1  0
 31 35  2  0
 31 56  1  0
 32 35  1  0
 32 57  1  0
 34 36  1  0
 34 58  1  0
 34 59  1  0
 35 60  1  0
 36 61  1  0
 36 62  1  0
 36 63  1  0
M  END
> <Name>
43672

> <PUBCHEM_COMPOUND_CID>
43672

> <Toxicity>
0

> <Data Set>
TrainingSet

$$$$
54676228
  SciTegic12242523262D

 36 38  0  0  0  0            999 V2000
    4.6660   -2.0670    0.0000 S   0  0
    5.1660   -2.9330    0.0000 O   0  0
    4.1660   -2.9330    0.0000 O   0  0
    4.6660    0.9330    0.0000 O   0  0
    7.2640   -0.5670    0.0000 O   0  0
    5.5320   -1.5670    0.0000 N   0  0
    6.3980    0.9330    0.0000 N   0  0
    8.1300    0.9330    0.0000 N   0  0
    3.8000   -1.5670    0.0000 C   0  0
    3.8000   -0.5670    0.0000 C   0  0
    5.5320   -0.5670    0.0000 C   0  0
    4.6660   -0.0670    0.0000 C   0  0
    2.9060   -2.1020    0.0000 C   0  0
    6.3980   -2.0670    0.0000 C   0  0
    2.9060   -0.0320    0.0000 C   0  0
    6.3980   -0.0670    0.0000 C   0  0
    2.0000   -1.5880    0.0000 C   0  0
    2.0000   -0.5460    0.0000 C   0  0
    7.2640    1.4330    0.0000 C   0  0
    7.2640    2.4330    0.0000 C   0  0
    8.1300    2.9330    0.0000 C   0  0
    8.9960    1.4330    0.0000 C   0  0
    8.9960    2.4330    0.0000 C   0  0
    2.9130   -2.7220    0.0000 H   0  0
    6.0880   -2.6040    0.0000 H   0  0
    6.9350   -2.3770    0.0000 H   0  0
    6.7080   -1.5300    0.0000 H   0  0
    2.9130    0.5880    0.0000 H   0  0
    1.4640   -1.9000    0.0000 H   0  0
    1.4640   -0.2340    0.0000 H   0  0
    5.8610    1.2430    0.0000 H   0  0
    4.1290    1.2430    0.0000 H   0  0
    6.7270    2.7430    0.0000 H   0  0
    8.1300    3.5530    0.0000 H   0  0
    9.5330    1.1230    0.0000 H   0  0
    9.5330    2.7430    0.0000 H   0  0
  1  2  2  0
  1  3  2  0
  1  6  1  0
  1  9  1  0
  4 12  1  0
  4 32  1  0
  5 16  2  0
  6 11  1  0
  6 14  1  0
  7 16  1  0
  7 19  1  0
  7 31  1  0
  8 19  1  0
  8 22  2  0
  9 10  2  0
  9 13  1  0
 10 12  1  0
 10 15  1  0
 11 12  2  0
 11 16  1  0
 13 17  2  0
 13 24  1  0
 14 25  1  0
 14 26  1  0
 14 27  1  0
 15 18  2  0
 15 28  1  0
 17 18  1  0
 17 29  1  0
 18 30  1  0
 19 20  2  0
 20 21  1  0
 20 33  1  0
 21 23  2  0
 21 34  1  0
 22 23  1  0
 22 35  1  0
 23 36  1  0
M  END
> <Name>
54676228

> <PUBCHEM_COMPOUND_CID>
54676228

> <Toxicity>
0

> <Data Set>
TrainingSet

$$$$
6918456
  SciTegic12242523262D

 46 49  0  0  1  0            999 V2000
    8.1420   -1.6220    0.0000 S   0  0
    2.8660    1.1830    0.0000 F   0  0
    3.7320    1.6830    0.0000 O   0  0
    9.7260   -0.8170    0.0000 O   0  0
    9.7260   -2.5490    0.0000 O   0  0
    5.4640   -0.3170    0.0000 N   0  0
    5.4640    1.6830    0.0000 C   0  0
    5.9640    2.5490    0.0000 C   0  0
    6.4640    1.6830    0.0000 C   0  0
    4.5980    1.1830    0.0000 C   0  0
    4.5980    0.1830    0.0000 C   0  0
    5.4640   -1.3170    0.0000 C   0  0
    6.3300    0.1830    0.0000 C   0  0
    3.7320   -0.3170    0.0000 C   0  0
    6.3300   -1.8170    0.0000 C   0  0
    7.1960   -0.3170    0.0000 C   0  0
    7.1960   -1.3170    0.0000 C   0  0
    8.1420   -0.0120    0.0000 C   0  0
    2.8660    0.1830    0.0000 C   0  0
    3.7320   -1.3170    0.0000 C   0  0
    8.7260   -0.8170    0.0000 C   0  0
    2.0000   -0.3170    0.0000 C   0  0
    2.8660   -1.8170    0.0000 C   0  0
    2.0000   -1.3170    0.0000 C   0  0
   10.2260   -1.6830    0.0000 C   0  0
   11.2260   -1.6830    0.0000 C   0  0
    5.6250    1.0840    0.0000 H   0  0
    6.4390    2.9480    0.0000 H   0  0
    5.4890    2.9480    0.0000 H   0  0
    6.5720    1.0720    0.0000 H   0  0
    7.0470    1.8950    0.0000 H   0  0
    5.1350    0.4930    0.0000 H   0  0
    4.8540   -1.2090    0.0000 H   0  0
    5.2520   -1.9000    0.0000 H   0  0
    6.7290    0.6580    0.0000 H   0  0
    5.9320    0.6580    0.0000 H   0  0
    5.9320   -2.2920    0.0000 H   0  0
    6.7290   -2.2920    0.0000 H   0  0
    8.3350    0.5770    0.0000 H   0  0
    4.2690   -1.6270    0.0000 H   0  0
    1.4630   -0.0070    0.0000 H   0  0
    2.8660   -2.4370    0.0000 H   0  0
    1.4630   -1.6270    0.0000 H   0  0
   11.2260   -2.3030    0.0000 H   0  0
   11.8460   -1.6830    0.0000 H   0  0
   11.2260   -1.0630    0.0000 H   0  0
  1 17  1  0
  1 21  1  0
  2 19  1  0
  3 10  2  0
  4 21  1  0
  4 25  1  0
  5 25  2  0
  6 11  1  0
  6 12  1  0
  6 13  1  0
  7  8  1  0
  7  9  1  0
  7 10  1  0
  7 27  1  0
  8  9  1  0
  8 28  1  0
  8 29  1  0
  9 30  1  0
  9 31  1  0
 10 11  1  0
 11 14  1  0
 11 32  1  0
 12 15  1  0
 12 33  1  0
 12 34  1  0
 13 16  1  0
 13 35  1  0
 13 36  1  0
 14 19  2  0
 14 20  1  0
 15 17  1  0
 15 37  1  0
 15 38  1  0
 16 17  2  0
 16 18  1  0
 18 21  2  0
 18 39  1  0
 19 22  1  0
 20 23  2  0
 20 40  1  0
 22 24  2  0
 22 41  1  0
 23 24  1  0
 23 42  1  0
 24 43  1  0
 25 26  1  0
 26 44  1  0
 26 45  1  0
 26 46  1  0
M  END
> <Name>
6918456

> <PUBCHEM_COMPOUND_CID>
6918456

> <Toxicity>
1

> <Data Set>
TrainingSet

$$$$
4891
  SciTegic12242523262D

 47 50  0  0  1  0            999 V2000
    4.6080    1.7570    0.0000 O   0  0
    6.3860   -2.3020    0.0000 O   0  0
    7.2680   -0.7670    0.0000 N   0  0
    5.4680    0.2540    0.0000 N   0  0
    7.2680    0.2330    0.0000 C   0  0
    3.7360    0.2600    0.0000 C   0  0
    6.3740    0.7670    0.0000 C   0  0
    2.8720    0.7640    0.0000 C   0  0
    3.7320   -0.7400    0.0000 C   0  0
    4.6040    0.7570    0.0000 C   0  0
    2.0040    0.2670    0.0000 C   0  0
    2.8640   -1.2360    0.0000 C   0  0
    8.1340    0.7330    0.0000 C   0  0
    8.1340   -1.2670    0.0000 C   0  0
    5.4680   -0.7880    0.0000 C   0  0
    2.0000   -0.7330    0.0000 C   0  0
    9.0000   -0.7670    0.0000 C   0  0
    6.3740   -1.3020    0.0000 C   0  0
    9.0000    0.2330    0.0000 C   0  0
    8.1180    1.7740    0.0000 C   0  0
    9.9100    0.7400    0.0000 C   0  0
    9.0160    2.3020    0.0000 C   0  0
    9.9180    1.7810    0.0000 C   0  0
    7.2730    0.8530    0.0000 H   0  0
    4.2720   -0.0520    0.0000 H   0  0
    6.7790    1.2370    0.0000 H   0  0
    5.9800    1.2460    0.0000 H   0  0
    3.2720    1.2370    0.0000 H   0  0
    2.4750    1.2400    0.0000 H   0  0
    3.9420   -1.3230    0.0000 H   0  0
    4.3430   -0.6340    0.0000 H   0  0
    1.7940    0.8500    0.0000 H   0  0
    1.3930    0.1620    0.0000 H   0  0
    2.4640   -1.7100    0.0000 H   0  0
    3.2610   -1.7130    0.0000 H   0  0
    7.7350   -1.7420    0.0000 H   0  0
    8.5320   -1.7420    0.0000 H   0  0
    4.8570   -0.6820    0.0000 H   0  0
    5.2590   -1.3720    0.0000 H   0  0
    1.3900   -0.6230    0.0000 H   0  0
    1.7860   -1.3150    0.0000 H   0  0
    9.2120   -1.3500    0.0000 H   0  0
    9.6110   -0.6600    0.0000 H   0  0
    7.5770    2.0780    0.0000 H   0  0
   10.4430    0.4230    0.0000 H   0  0
    9.0140    2.9220    0.0000 H   0  0
   10.4560    2.0890    0.0000 H   0  0
  1 10  2  0
  2 18  2  0
  3  5  1  0
  3 14  1  0
  3 18  1  0
  4  7  1  0
  4 10  1  0
  4 15  1  0
  5  7  1  0
  5 13  1  0
  5 24  1  0
  6  8  1  0
  6  9  1  0
  6 10  1  0
  6 25  1  0
  7 26  1  0
  7 27  1  0
  8 11  1  0
  8 28  1  0
  8 29  1  0
  9 12  1  0
  9 30  1  0
  9 31  1  0
 11 16  1  0
 11 32  1  0
 11 33  1  0
 12 16  1  0
 12 34  1  0
 12 35  1  0
 13 19  2  0
 13 20  1  0
 14 17  1  0
 14 36  1  0
 14 37  1  0
 15 18  1  0
 15 38  1  0
 15 39  1  0
 16 40  1  0
 16 41  1  0
 17 19  1  0
 17 42  1  0
 17 43  1  0
 19 21  1  0
 20 22  2  0
 20 44  1  0
 21 23  2  0
 21 45  1  0
 22 23  1  0
 22 46  1  0
 23 47  1  0
M  END
> <Name>
4891

> <PUBCHEM_COMPOUND_CID>
4891

> <Toxicity>
0

> <Data Set>
TrainingSet

$$$$
4908
  SciTegic12242523262D

 40 41  0  0  1  0            999 V2000
    3.4030    3.0600    0.0000 O   0  0
    5.1350    0.0600    0.0000 N   0  0
    2.5370   -3.4400    0.0000 N   0  0
    6.8950    1.0250    0.0000 N   0  0
    4.2690   -0.4400    0.0000 C   0  0
    4.2690   -1.4400    0.0000 C   0  0
    3.4030   -1.9400    0.0000 C   0  0
    3.4030    0.0600    0.0000 C   0  0
    5.1350    1.0600    0.0000 C   0  0
    3.4030   -2.9400    0.0000 C   0  0
    6.0010    1.5600    0.0000 C   0  0
    4.2690    1.5600    0.0000 C   0  0
    6.0010    2.5600    0.0000 C   0  0
    4.2690    2.5600    0.0000 C   0  0
    5.1350    3.0600    0.0000 C   0  0
    6.8950    3.0950    0.0000 C   0  0
    7.8010    2.5810    0.0000 C   0  0
    7.8010    1.5390    0.0000 C   0  0
    3.4030    4.0600    0.0000 C   0  0
    4.2690    0.1800    0.0000 H   0  0
    4.4810   -2.0230    0.0000 H   0  0
    4.8800   -1.3320    0.0000 H   0  0
    3.1910   -1.3570    0.0000 H   0  0
    2.7920   -2.0480    0.0000 H   0  0
    5.6720   -0.2500    0.0000 H   0  0
    3.7130    0.5970    0.0000 H   0  0
    2.8660    0.3700    0.0000 H   0  0
    3.0930   -0.4770    0.0000 H   0  0
    3.6150   -3.5230    0.0000 H   0  0
    4.0130   -2.8320    0.0000 H   0  0
    3.7320    1.2500    0.0000 H   0  0
    5.1350    3.6800    0.0000 H   0  0
    6.8880    3.7150    0.0000 H   0  0
    2.5370   -4.0600    0.0000 H   0  0
    2.0000   -3.1300    0.0000 H   0  0
    8.3370    2.8930    0.0000 H   0  0
    8.3370    1.2270    0.0000 H   0  0
    4.0230    4.0600    0.0000 H   0  0
    3.4030    4.6800    0.0000 H   0  0
    2.7830    4.0600    0.0000 H   0  0
  1 14  1  0
  1 19  1  0
  2  5  1  0
  2  9  1  0
  2 25  1  0
  3 10  1  0
  3 34  1  0
  3 35  1  0
  4 11  2  0
  4 18  1  0
  5  6  1  0
  5  8  1  0
  5 20  1  0
  6  7  1  0
  6 21  1  0
  6 22  1  0
  7 10  1  0
  7 23  1  0
  7 24  1  0
  8 26  1  0
  8 27  1  0
  8 28  1  0
  9 11  1  0
  9 12  2  0
 10 29  1  0
 10 30  1  0
 11 13  1  0
 12 14  1  0
 12 31  1  0
 13 15  1  0
 13 16  2  0
 14 15  2  0
 15 32  1  0
 16 17  1  0
 16 33  1  0
 17 18  2  0
 17 36  1  0
 18 37  1  0
 19 38  1  0
 19 39  1  0
 19 40  1  0
M  END
> <Name>
4908

> <PUBCHEM_COMPOUND_CID>
4908

> <Toxicity>
0

> <Data Set>
TrainingSet

$$$$
5755
  SciTegic12242523262D

 54 57  0  0  1  0            999 V2000
    8.0320    1.8620    0.0000 O   0  0
    4.7950    1.1060    0.0000 O   0  0
    9.0460    2.4920    0.0000 O   0  0
   10.8720    1.6750    0.0000 O   0  0
    2.0000   -2.4460    0.0000 O   0  0
    7.3930    0.6060    0.0000 C   0  0  1  0  0  0
    7.3930   -0.3940    0.0000 C   0  0  2  0  0  0
    6.5270   -0.8940    0.0000 C   0  0  1  0  0  0
    5.6610   -0.3940    0.0000 C   0  0  2  0  0  0
    8.3390    0.9110    0.0000 C   0  0  1  0  0  0
    6.5270    1.1060    0.0000 C   0  0
    8.3390   -0.6990    0.0000 C   0  0
    5.6610    0.6060    0.0000 C   0  0  2  0  0  0
    4.7510   -0.9010    0.0000 C   0  0  1  0  0  0
    8.9230    0.1060    0.0000 C   0  0
    6.5430   -1.9350    0.0000 C   0  0
    7.3930    1.6060    0.0000 C   0  0
    5.6450   -2.4630    0.0000 C   0  0
    4.7430   -1.9420    0.0000 C   0  0
    9.1490    1.4970    0.0000 C   0  0
    4.7590    0.0990    0.0000 C   0  0
    3.8240   -0.3370    0.0000 C   0  0
    3.8080   -2.4920    0.0000 C   0  0
   10.0620    1.0890    0.0000 C   0  0
    2.8760   -0.8640    0.0000 C   0  0
    2.8680   -1.9500    0.0000 C   0  0
    7.4830   -1.2390    0.0000 H   0  0
    7.2660   -1.3130    0.0000 H   0  0
    6.3970    0.0310    0.0000 H   0  0
    6.9260    1.5810    0.0000 H   0  0
    6.1280    1.5810    0.0000 H   0  0
    8.0880   -1.2660    0.0000 H   0  0
    8.8770   -1.0080    0.0000 H   0  0
    5.6610    1.2260    0.0000 H   0  0
    9.3840   -0.3090    0.0000 H   0  0
    9.3840    0.5210    0.0000 H   0  0
    6.7610   -2.5160    0.0000 H   0  0
    7.1520   -1.8200    0.0000 H   0  0
    8.0130    1.6060    0.0000 H   0  0
    7.3930    2.2260    0.0000 H   0  0
    6.7730    1.6060    0.0000 H   0  0
    5.2480   -2.9390    0.0000 H   0  0
    6.0460   -2.9360    0.0000 H   0  0
    5.3790    0.0940    0.0000 H   0  0
    4.7640    0.7190    0.0000 H   0  0
    4.1390    0.1040    0.0000 H   0  0
    3.8360    0.2830    0.0000 H   0  0
    8.4480    2.3220    0.0000 H   0  0
    4.7950    1.7260    0.0000 H   0  0
    3.8100   -3.1120    0.0000 H   0  0
    9.7150    0.5760    0.0000 H   0  0
   10.5070    0.6580    0.0000 H   0  0
    2.3430   -0.5480    0.0000 H   0  0
   11.4380    1.4220    0.0000 H   0  0
 10  1  1  6
  1 48  1  0
 13  2  1  1
  2 49  1  0
  3 20  2  0
  4 24  1  0
  4 54  1  0
  5 26  2  0
  6  7  1  0
  6 10  1  0
  6 11  1  0
  6 17  1  1
  7  8  1  0
  7 12  1  0
  7 27  1  6
  8  9  1  0
  8 16  1  0
  8 28  1  1
  9 13  1  0
  9 14  1  0
  9 29  1  6
 10 15  1  0
 10 20  1  1
 11 13  1  0
 11 30  1  0
 11 31  1  0
 12 15  1  0
 12 32  1  0
 12 33  1  0
 13 34  1  6
 14 19  1  0
 14 21  1  1
 14 22  1  0
 15 35  1  0
 15 36  1  0
 16 18  1  0
 16 37  1  0
 16 38  1  0
 17 39  1  0
 17 40  1  0
 17 41  1  0
 18 19  1  0
 18 42  1  0
 18 43  1  0
 19 23  2  0
 20 24  1  0
 21 44  1  0
 21 45  1  0
 21 46  1  0
 22 25  2  0
 22 47  1  0
 23 26  1  0
 23 50  1  0
 24 51  1  0
 24 52  1  0
 25 26  1  0
 25 53  1  0
M  END
> <Name>
5755

> <PUBCHEM_COMPOUND_CID>
5755

> <Toxicity>
0

> <Data Set>
TrainingSet

$$$$
5865
  SciTegic12242523262D

 52 55  0  0  1  0            999 V2000
    8.0320    1.8620    0.0000 O   0  0
    4.7950    1.1060    0.0000 O   0  0
    9.0460    2.4920    0.0000 O   0  0
   10.8720    1.6750    0.0000 O   0  0
    2.0000   -2.4460    0.0000 O   0  0
    7.3930    0.6060    0.0000 C   0  0  1  0  0  0
    7.3930   -0.3940    0.0000 C   0  0  2  0  0  0
    6.5270   -0.8940    0.0000 C   0  0  1  0  0  0
    5.6610   -0.3940    0.0000 C   0  0  1  0  0  0
    8.3390    0.9110    0.0000 C   0  0  1  0  0  0
    8.3390   -0.6990    0.0000 C   0  0
    6.5270    1.1060    0.0000 C   0  0
    8.9230    0.1060    0.0000 C   0  0
    4.7510   -0.9010    0.0000 C   0  0  1  0  0  0
    6.5430   -1.9350    0.0000 C   0  0
    5.6610    0.6060    0.0000 C   0  0
    7.3930    1.6060    0.0000 C   0  0
    5.6450   -2.4630    0.0000 C   0  0
    4.7430   -1.9420    0.0000 C   0  0
    9.1490    1.4970    0.0000 C   0  0
    4.7590    0.0990    0.0000 C   0  0
    3.8240   -0.3370    0.0000 C   0  0
    3.8080   -2.4920    0.0000 C   0  0
   10.0620    1.0890    0.0000 C   0  0
    2.8760   -0.8640    0.0000 C   0  0
    2.8680   -1.9500    0.0000 C   0  0
    7.4830   -1.2390    0.0000 H   0  0
    7.2660   -1.3130    0.0000 H   0  0
    6.3970    0.0310    0.0000 H   0  0
    8.0880   -1.2660    0.0000 H   0  0
    8.8770   -1.0080    0.0000 H   0  0
    6.9260    1.5810    0.0000 H   0  0
    6.1280    1.5810    0.0000 H   0  0
    9.3840   -0.3090    0.0000 H   0  0
    9.3840    0.5210    0.0000 H   0  0
    6.7610   -2.5160    0.0000 H   0  0
    7.1520   -1.8200    0.0000 H   0  0
    8.0130    1.6060    0.0000 H   0  0
    7.3930    2.2260    0.0000 H   0  0
    6.7730    1.6060    0.0000 H   0  0
    5.2480   -2.9390    0.0000 H   0  0
    6.0460   -2.9360    0.0000 H   0  0
    5.3790    0.0940    0.0000 H   0  0
    4.7640    0.7190    0.0000 H   0  0
    4.1390    0.1040    0.0000 H   0  0
    3.8360    0.2830    0.0000 H   0  0
    8.4480    2.3220    0.0000 H   0  0
    3.8100   -3.1120    0.0000 H   0  0
    9.7150    0.5760    0.0000 H   0  0
   10.5070    0.6580    0.0000 H   0  0
    2.3430   -0.5480    0.0000 H   0  0
   11.4380    1.4220    0.0000 H   0  0
 10  1  1  6
  1 47  1  0
  2 16  2  0
  3 20  2  0
  4 24  1  0
  4 52  1  0
  5 26  2  0
  6  7  1  0
  6 10  1  0
  6 12  1  0
  6 17  1  1
  7  8  1  0
  7 11  1  0
  7 27  1  6
  8  9  1  0
  8 15  1  0
  8 28  1  1
  9 14  1  0
  9 16  1  0
  9 29  1  6
 10 13  1  0
 10 20  1  1
 11 13  1  0
 11 30  1  0
 11 31  1  0
 12 16  1  0
 12 32  1  0
 12 33  1  0
 13 34  1  0
 13 35  1  0
 14 19  1  0
 14 21  1  1
 14 22  1  0
 15 18  1  0
 15 36  1  0
 15 37  1  0
 17 38  1  0
 17 39  1  0
 17 40  1  0
 18 19  1  0
 18 41  1  0
 18 42  1  0
 19 23  2  0
 20 24  1  0
 21 43  1  0
 21 44  1  0
 21 45  1  0
 22 25  2  0
 22 46  1  0
 23 26  1  0
 23 48  1  0
 24 49  1  0
 24 50  1  0
 25 26  1  0
 25 51  1  0
M  END
> <Name>
5865

> <PUBCHEM_COMPOUND_CID>
5865

> <Toxicity>
0

> <Data Set>
TrainingSet

$$$$
4909
  SciTegic12242523262D

 30 31  0  0  0  0            999 V2000
    5.4640   -0.2990    0.0000 O   0  0
    2.0000   -0.2990    0.0000 O   0  0
    4.5980   -1.7990    0.0000 N   0  0
    2.8660   -1.7990    0.0000 N   0  0
    3.7320   -0.2990    0.0000 C   0  0
    3.2320    0.5670    0.0000 C   0  0
    4.2320    0.5670    0.0000 C   0  0
    4.5980   -0.7990    0.0000 C   0  0
    2.8660   -0.7990    0.0000 C   0  0
    3.7320   -2.2990    0.0000 C   0  0
    2.2320    0.5670    0.0000 C   0  0
    3.7320    1.4330    0.0000 C   0  0
    5.2320    0.5670    0.0000 C   0  0
    4.2320    2.2990    0.0000 C   0  0
    5.7320    1.4330    0.0000 C   0  0
    5.2320    2.2990    0.0000 C   0  0
    3.8150    0.7790    0.0000 H   0  0
    3.1240    1.1780    0.0000 H   0  0
    3.3340   -2.7740    0.0000 H   0  0
    4.1310   -2.7740    0.0000 H   0  0
    5.1350   -2.1090    0.0000 H   0  0
    2.3290   -2.1090    0.0000 H   0  0
    2.2320    1.1870    0.0000 H   0  0
    1.6120    0.5670    0.0000 H   0  0
    2.2320   -0.0530    0.0000 H   0  0
    3.1120    1.4330    0.0000 H   0  0
    5.5420    0.0300    0.0000 H   0  0
    3.9220    2.8360    0.0000 H   0  0
    6.3520    1.4330    0.0000 H   0  0
    5.5420    2.8360    0.0000 H   0  0
  1  8  2  0
  2  9  2  0
  3  8  1  0
  3 10  1  0
  3 21  1  0
  4  9  1  0
  4 10  1  0
  4 22  1  0
  5  6  1  0
  5  7  1  0
  5  8  1  0
  5  9  1  0
  6 11  1  0
  6 17  1  0
  6 18  1  0
  7 12  2  0
  7 13  1  0
 10 19  1  0
 10 20  1  0
 11 23  1  0
 11 24  1  0
 11 25  1  0
 12 14  1  0
 12 26  1  0
 13 15  2  0
 13 27  1  0
 14 16  2  0
 14 28  1  0
 15 16  1  0
 15 29  1  0
 16 30  1  0
M  END
> <Name>
4909

> <PUBCHEM_COMPOUND_CID>
4909

> <Toxicity>
1

> <Data Set>
TrainingSet

$$$$
4911
  SciTegic12242523262D

 38 38  0  0  0  0            999 V2000
    3.7320    1.0600    0.0000 S   0  0
    4.7320    1.0600    0.0000 O   0  0
    2.7320    1.0600    0.0000 O   0  0
    2.8660   -3.4400    0.0000 O   0  0
    4.5980   -3.4400    0.0000 O   0  0
    3.7320    2.0600    0.0000 N   0  0
    4.5980    2.5600    0.0000 C   0  0
    2.8660    2.5600    0.0000 C   0  0
    4.5980    3.5600    0.0000 C   0  0
    2.8660    3.5600    0.0000 C   0  0
    3.7320    0.0600    0.0000 C   0  0
    5.4640    4.0600    0.0000 C   0  0
    2.0000    4.0600    0.0000 C   0  0
    4.5980   -0.4400    0.0000 C   0  0
    2.8660   -0.4400    0.0000 C   0  0
    4.5980   -1.4400    0.0000 C   0  0
    2.8660   -1.4400    0.0000 C   0  0
    3.7320   -1.9400    0.0000 C   0  0
    3.7320   -2.9400    0.0000 C   0  0
    4.8100    1.9770    0.0000 H   0  0
    5.2090    2.6680    0.0000 H   0  0
    2.2550    2.6680    0.0000 H   0  0
    2.6540    1.9770    0.0000 H   0  0
    4.3860    4.1430    0.0000 H   0  0
    3.9880    3.4520    0.0000 H   0  0
    3.4770    3.4520    0.0000 H   0  0
    3.0780    4.1430    0.0000 H   0  0
    5.7740    3.5230    0.0000 H   0  0
    6.0010    4.3700    0.0000 H   0  0
    5.1540    4.5970    0.0000 H   0  0
    2.3100    4.5970    0.0000 H   0  0
    1.4630    4.3700    0.0000 H   0  0
    1.6900    3.5230    0.0000 H   0  0
    5.1350   -0.1300    0.0000 H   0  0
    2.3290   -0.1300    0.0000 H   0  0
    5.1350   -1.7500    0.0000 H   0  0
    2.3290   -1.7500    0.0000 H   0  0
    2.8660   -4.0600    0.0000 H   0  0
  1  2  2  0
  1  3  2  0
  1  6  1  0
  1 11  1  0
  4 19  1  0
  4 38  1  0
  5 19  2  0
  6  7  1  0
  6  8  1  0
  7  9  1  0
  7 20  1  0
  7 21  1  0
  8 10  1  0
  8 22  1  0
  8 23  1  0
  9 12  1  0
  9 24  1  0
  9 25  1  0
 10 13  1  0
 10 26  1  0
 10 27  1  0
 11 14  2  0
 11 15  1  0
 12 28  1  0
 12 29  1  0
 12 30  1  0
 13 31  1  0
 13 32  1  0
 13 33  1  0
 14 16  1  0
 14 34  1  0
 15 17  2  0
 15 35  1  0
 16 18  2  0
 16 36  1  0
 17 18  1  0
 17 37  1  0
 18 19  1  0
M  END
> <Name>
4911

> <PUBCHEM_COMPOUND_CID>
4911

> <Toxicity>
0

> <Data Set>
TrainingSet

$$$$
4932
  SciTegic12242523262D

 52 53  0  0  1  0            999 V2000
    8.0620   -1.2500    0.0000 O   0  0
    6.3300   -0.2500    0.0000 O   0  0
    8.9280    0.2500    0.0000 O   0  0
    4.5980   -1.2500    0.0000 N   0  0
    6.3300   -1.2500    0.0000 C   0  0
    5.4640   -1.7500    0.0000 C   0  0
    7.1960   -1.7500    0.0000 C   0  0
    3.7320   -1.7500    0.0000 C   0  0
   10.6600    0.2500    0.0000 C   0  0
   10.6600    1.2500    0.0000 C   0  0
    2.8660   -1.2500    0.0000 C   0  0
    9.7940   -1.2500    0.0000 C   0  0
    8.9280   -1.7500    0.0000 C   0  0
    9.7940   -0.2500    0.0000 C   0  0
   11.5260    1.7500    0.0000 C   0  0
   10.6600   -1.7500    0.0000 C   0  0
    8.9280   -2.7500    0.0000 C   0  0
    2.0000   -1.7500    0.0000 C   0  0
   10.6600   -2.7500    0.0000 C   0  0
   12.3920    1.2500    0.0000 C   0  0
   11.5260    2.7500    0.0000 C   0  0
    9.7940   -3.2500    0.0000 C   0  0
   13.2580    1.7500    0.0000 C   0  0
   12.3920    3.2500    0.0000 C   0  0
   13.2580    2.7500    0.0000 C   0  0
    6.8670   -0.9400    0.0000 H   0  0
    5.0660   -2.2250    0.0000 H   0  0
    5.8630   -2.2250    0.0000 H   0  0
    6.7980   -2.2250    0.0000 H   0  0
    7.5950   -2.2250    0.0000 H   0  0
    4.5980   -0.6300    0.0000 H   0  0
    3.3340   -2.2250    0.0000 H   0  0
    4.1310   -2.2250    0.0000 H   0  0
   10.8720   -0.3330    0.0000 H   0  0
   11.2710    0.3580    0.0000 H   0  0
   10.4480    1.8330    0.0000 H   0  0
   10.0500    1.1420    0.0000 H   0  0
    3.2650   -0.7750    0.0000 H   0  0
    2.4680   -0.7750    0.0000 H   0  0
   11.1970   -1.4400    0.0000 H   0  0
    5.7930    0.0600    0.0000 H   0  0
    8.3910   -3.0600    0.0000 H   0  0
    1.6900   -1.2130    0.0000 H   0  0
    1.4630   -2.0600    0.0000 H   0  0
    2.3100   -2.2870    0.0000 H   0  0
   12.3920    0.6300    0.0000 H   0  0
   10.9890    3.0600    0.0000 H   0  0
   11.1970   -3.0600    0.0000 H   0  0
    9.7940   -3.8700    0.0000 H   0  0
   13.7950    1.4400    0.0000 H   0  0
   12.3920    3.8700    0.0000 H   0  0
   13.7950    3.0600    0.0000 H   0  0
  1  7  1  0
  1 13  1  0
  2  5  1  0
  2 41  1  0
  3 14  2  0
  4  6  1  0
  4  8  1  0
  4 31  1  0
  5  6  1  0
  5  7  1  0
  5 26  1  0
  6 27  1  0
  6 28  1  0
  7 29  1  0
  7 30  1  0
  8 11  1  0
  8 32  1  0
  8 33  1  0
  9 10  1  0
  9 14  1  0
  9 34  1  0
  9 35  1  0
 10 15  1  0
 10 36  1  0
 10 37  1  0
 11 18  1  0
 11 38  1  0
 11 39  1  0
 12 13  2  0
 12 14  1  0
 12 16  1  0
 13 17  1  0
 15 20  2  0
 15 21  1  0
 16 19  2  0
 16 40  1  0
 17 22  2  0
 17 42  1  0
 18 43  1  0
 18 44  1  0
 18 45  1  0
 19 22  1  0
 19 48  1  0
 20 23  1  0
 20 46  1  0
 21 24  2  0
 21 47  1  0
 22 49  1  0
 23 25  2  0
 23 50  1  0
 24 25  1  0
 24 51  1  0
 25 52  1  0
M  END
> <Name>
4932

> <PUBCHEM_COMPOUND_CID>
4932

> <Toxicity>
0

> <Data Set>
TrainingSet

$$$$
4943
  SciTegic12242523262D

 31 31  0  0  0  0            999 V2000
    4.5980    1.3450    0.0000 O   0  0
    6.3300    0.3450    0.0000 C   0  0
    2.8660    0.3450    0.0000 C   0  0
    5.4640   -0.1550    0.0000 C   0  0
    3.7320   -0.1550    0.0000 C   0  0
    4.5980    0.3450    0.0000 C   0  0
    5.4640   -1.1550    0.0000 C   0  0
    3.7320   -1.1550    0.0000 C   0  0
    7.1960   -0.1550    0.0000 C   0  0
    6.3300    1.3450    0.0000 C   0  0
    2.0000   -0.1550    0.0000 C   0  0
    2.8660    1.3450    0.0000 C   0  0
    4.5980   -1.6550    0.0000 C   0  0
    6.8670    0.6550    0.0000 H   0  0
    2.8660   -0.2750    0.0000 H   0  0
    6.0010   -1.4650    0.0000 H   0  0
    3.1950   -1.4650    0.0000 H   0  0
    6.8860   -0.6920    0.0000 H   0  0
    7.7330   -0.4650    0.0000 H   0  0
    7.5060    0.3820    0.0000 H   0  0
    6.9500    1.3450    0.0000 H   0  0
    6.3300    1.9650    0.0000 H   0  0
    5.7100    1.3450    0.0000 H   0  0
    1.6900    0.3820    0.0000 H   0  0
    1.4630   -0.4650    0.0000 H   0  0
    2.3100   -0.6920    0.0000 H   0  0
    3.4860    1.3450    0.0000 H   0  0
    2.8660    1.9650    0.0000 H   0  0
    2.2460    1.3450    0.0000 H   0  0
    4.5980   -2.2750    0.0000 H   0  0
    5.1350    1.6550    0.0000 H   0  0
  1  6  1  0
  1 31  1  0
  2  4  1  0
  2  9  1  0
  2 10  1  0
  2 14  1  0
  3  5  1  0
  3 11  1  0
  3 12  1  0
  3 15  1  0
  4  6  2  0
  4  7  1  0
  5  6  1  0
  5  8  2  0
  7 13  2  0
  7 16  1  0
  8 13  1  0
  8 17  1  0
  9 18  1  0
  9 19  1  0
  9 20  1  0
 10 21  1  0
 10 22  1  0
 10 23  1  0
 11 24  1  0
 11 25  1  0
 11 26  1  0
 12 27  1  0
 12 28  1  0
 12 29  1  0
 13 30  1  0
M  END
> <Name>
4943

> <PUBCHEM_COMPOUND_CID>
4943

> <Toxicity>
0

> <Data Set>
TestSet

$$$$
4946
  SciTegic12242523262D

 40 41  0  0  1  0            999 V2000
    5.4640    0.7330    0.0000 O   0  0
    5.4640   -1.2670    0.0000 O   0  0
    3.7320   -2.2670    0.0000 N   0  0
    4.5980   -0.7670    0.0000 C   0  0
    3.7320   -1.2670    0.0000 C   0  0
    2.8660   -2.7670    0.0000 C   0  0
    4.5980    0.2330    0.0000 C   0  0
    2.8660   -3.7670    0.0000 C   0  0
    2.0000   -2.2670    0.0000 C   0  0
    5.4640    1.7330    0.0000 C   0  0
    6.3300    2.2330    0.0000 C   0  0
    6.3300    3.2330    0.0000 C   0  0
    4.5980    2.2330    0.0000 C   0  0
    7.2240    1.6980    0.0000 C   0  0
    5.4640    3.7330    0.0000 C   0  0
    4.5980    3.2330    0.0000 C   0  0
    7.2240    3.7670    0.0000 C   0  0
    8.1300    2.2120    0.0000 C   0  0
    8.1300    3.2540    0.0000 C   0  0
    4.5980   -1.6170    0.0000 H   0  0
    3.5200   -0.6850    0.0000 H   0  0
    3.1220   -1.3750    0.0000 H   0  0
    2.8660   -2.1470    0.0000 H   0  0
    4.2690   -2.5770    0.0000 H   0  0
    4.3860    0.8150    0.0000 H   0  0
    3.9880    0.1250    0.0000 H   0  0
    2.2460   -3.7670    0.0000 H   0  0
    2.8660   -4.3870    0.0000 H   0  0
    3.4860   -3.7670    0.0000 H   0  0
    2.3100   -1.7300    0.0000 H   0  0
    1.4630   -1.9570    0.0000 H   0  0
    1.6900   -2.8040    0.0000 H   0  0
    5.4640   -1.8870    0.0000 H   0  0
    4.0610    1.9230    0.0000 H   0  0
    7.2170    1.0780    0.0000 H   0  0
    5.4640    4.3530    0.0000 H   0  0
    4.0610    3.5430    0.0000 H   0  0
    7.2170    4.3870    0.0000 H   0  0
    8.6660    1.9000    0.0000 H   0  0
    8.6660    3.5660    0.0000 H   0  0
  1  7  1  0
  1 10  1  0
  2  4  1  0
  2 33  1  0
  3  5  1  0
  3  6  1  0
  3 24  1  0
  4  5  1  0
  4  7  1  0
  4 20  1  0
  5 21  1  0
  5 22  1  0
  6  8  1  0
  6  9  1  0
  6 23  1  0
  7 25  1  0
  7 26  1  0
  8 27  1  0
  8 28  1  0
  8 29  1  0
  9 30  1  0
  9 31  1  0
  9 32  1  0
 10 11  2  0
 10 13  1  0
 11 12  1  0
 11 14  1  0
 12 15  2  0
 12 17  1  0
 13 16  2  0
 13 34  1  0
 14 18  2  0
 14 35  1  0
 15 16  1  0
 15 36  1  0
 16 37  1  0
 17 19  2  0
 17 38  1  0
 18 19  1  0
 18 39  1  0
 19 40  1  0
M  END
> <Name>
4946

> <PUBCHEM_COMPOUND_CID>
4946

> <Toxicity>
0

> <Data Set>
TrainingSet

$$$$
7558
  SciTegic12242523262D

 32 32  0  0  1  0            999 V2000
    3.7320    2.0000    0.0000 N   0  0
    2.8660   -0.5000    0.0000 C   0  0
    2.0000   -1.0000    0.0000 C   0  0
    3.7320   -1.0000    0.0000 C   0  0
    2.8660    0.5000    0.0000 C   0  0
    2.0000   -2.0000    0.0000 C   0  0
    3.7320   -2.0000    0.0000 C   0  0
    2.8660   -2.5000    0.0000 C   0  0
    3.7320    1.0000    0.0000 C   0  0
    4.5980    0.5000    0.0000 C   0  0
    4.5980    2.5000    0.0000 C   0  0
    3.4030   -0.1900    0.0000 H   0  0
    1.7880   -0.4170    0.0000 H   0  0
    1.3890   -1.1080    0.0000 H   0  0
    4.3430   -1.1080    0.0000 H   0  0
    3.9440   -0.4170    0.0000 H   0  0
    2.6540    1.0830    0.0000 H   0  0
    2.2550    0.3920    0.0000 H   0  0
    1.3890   -1.8920    0.0000 H   0  0
    1.7880   -2.5830    0.0000 H   0  0
    3.9440   -2.5830    0.0000 H   0  0
    4.3430   -1.8920    0.0000 H   0  0
    2.4680   -2.9750    0.0000 H   0  0
    3.2650   -2.9750    0.0000 H   0  0
    4.2690    1.3100    0.0000 H   0  0
    4.2880   -0.0370    0.0000 H   0  0
    5.1350    0.1900    0.0000 H   0  0
    4.9080    1.0370    0.0000 H   0  0
    3.1950    2.3100    0.0000 H   0  0
    4.9080    1.9630    0.0000 H   0  0
    5.1350    2.8100    0.0000 H   0  0
    4.2880    3.0370    0.0000 H   0  0
  1  9  1  0
  1 11  1  0
  1 29  1  0
  2  3  1  0
  2  4  1  0
  2  5  1  0
  2 12  1  0
  3  6  1  0
  3 13  1  0
  3 14  1  0
  4  7  1  0
  4 15  1  0
  4 16  1  0
  5  9  1  0
  5 17  1  0
  5 18  1  0
  6  8  1  0
  6 19  1  0
  6 20  1  0
  7  8  1  0
  7 21  1  0
  7 22  1  0
  8 23  1  0
  8 24  1  0
  9 10  1  0
  9 25  1  0
 10 26  1  0
 10 27  1  0
 10 28  1  0
 11 30  1  0
 11 31  1  0
 11 32  1  0
M  END
> <Name>
7558

> <PUBCHEM_COMPOUND_CID>
7558

> <Toxicity>
1

> <Data Set>
TrainingSet

$$$$
657298
  SciTegic12242523262D

 21 21  0  0  0  0            999 V2000
    7.1960   -1.1900    0.0000 S   0  0
    5.4640    1.8100    0.0000 O   0  0
    5.4640   -1.1900    0.0000 N   0  0
    6.3300    0.3100    0.0000 N   0  0
    3.7320   -1.1900    0.0000 C   0  0
    4.5980   -0.6900    0.0000 C   0  0
    2.8660   -0.6900    0.0000 C   0  0
    4.5980    0.3100    0.0000 C   0  0
    2.0000   -1.1900    0.0000 C   0  0
    6.3300   -0.6900    0.0000 C   0  0
    5.4640    0.8100    0.0000 C   0  0
    3.3340   -1.6650    0.0000 H   0  0
    4.1310   -1.6650    0.0000 H   0  0
    3.2650   -0.2150    0.0000 H   0  0
    2.4680   -0.2150    0.0000 H   0  0
    5.4640   -1.8100    0.0000 H   0  0
    4.0610    0.6200    0.0000 H   0  0
    1.6900   -0.6530    0.0000 H   0  0
    1.4630   -1.5000    0.0000 H   0  0
    2.3100   -1.7270    0.0000 H   0  0
    6.8670    0.6200    0.0000 H   0  0
  1 10  2  0
  2 11  2  0
  3  6  1  0
  3 10  1  0
  3 16  1  0
  4 10  1  0
  4 11  1  0
  4 21  1  0
  5  6  1  0
  5  7  1  0
  5 12  1  0
  5 13  1  0
  6  8  2  0
  7  9  1  0
  7 14  1  0
  7 15  1  0
  8 11  1  0
  8 17  1  0
  9 18  1  0
  9 19  1  0
  9 20  1  0
M  END
> <Name>
657298

> <PUBCHEM_COMPOUND_CID>
657298

> <Toxicity>
0

> <Data Set>
TestSet

$$$$
4991
  SciTegic12242523262D

 26 26  0  0  0  0            999 V2000
    3.7320    0.2500    0.0000 O   0  0
    4.5980    1.7500    0.0000 O   0  0
    5.4640   -1.7500    0.0000 N   0  3
    2.8660    1.7500    0.0000 N   0  0
    4.5980   -0.2500    0.0000 C   0  0
    4.5980   -1.2500    0.0000 C   0  0
    6.3300   -1.2500    0.0000 C   0  0
    5.4640    0.2500    0.0000 C   0  0
    6.3300   -0.2500    0.0000 C   0  0
    5.4640   -2.7500    0.0000 C   0  0
    3.7320    1.2500    0.0000 C   0  0
    2.8660    2.7500    0.0000 C   0  0
    2.0000    1.2500    0.0000 C   0  0
    4.0610   -1.5600    0.0000 H   0  0
    6.8670   -1.5600    0.0000 H   0  0
    5.4640    0.8700    0.0000 H   0  0
    6.8670    0.0600    0.0000 H   0  0
    4.8440   -2.7500    0.0000 H   0  0
    5.4640   -3.3700    0.0000 H   0  0
    6.0840   -2.7500    0.0000 H   0  0
    3.4860    2.7500    0.0000 H   0  0
    2.8660    3.3700    0.0000 H   0  0
    2.2460    2.7500    0.0000 H   0  0
    1.6900    1.7870    0.0000 H   0  0
    1.4630    0.9400    0.0000 H   0  0
    2.3100    0.7130    0.0000 H   0  0
  1  5  1  0
  1 11  1  0
  2 11  2  0
  3  6  2  0
  3  7  1  0
  3 10  1  0
  4 11  1  0
  4 12  1  0
  4 13  1  0
  5  6  1  0
  5  8  2  0
  6 14  1  0
  7  9  2  0
  7 15  1  0
  8  9  1  0
  8 16  1  0
  9 17  1  0
 10 18  1  0
 10 19  1  0
 10 20  1  0
 12 21  1  0
 12 22  1  0
 12 23  1  0
 13 24  1  0
 13 25  1  0
 13 26  1  0
M  CHG  1   3   1
M  END
> <Name>
4991

> <PUBCHEM_COMPOUND_CID>
4991

> <Toxicity>
0

> <Data Set>
TrainingSet

$$$$
1054
  SciTegic12242523262D

 23 23  0  0  0  0            999 V2000
    2.5370   -0.0600    0.0000 O   0  0
    5.1350    1.4400    0.0000 O   0  0
    6.8670   -0.5600    0.0000 O   0  0
    4.2690   -2.0600    0.0000 N   0  0
    4.2690   -0.0600    0.0000 C   0  0
    5.1350   -0.5600    0.0000 C   0  0
    3.4030   -0.5600    0.0000 C   0  0
    3.4030   -1.5600    0.0000 C   0  0
    4.2690    0.9400    0.0000 C   0  0
    6.0010   -0.0600    0.0000 C   0  0
    5.1350   -1.5600    0.0000 C   0  0
    2.5370   -2.0600    0.0000 C   0  0
    4.0570    1.5230    0.0000 H   0  0
    3.6580    0.8320    0.0000 H   0  0
    6.4000    0.4150    0.0000 H   0  0
    5.6020    0.4150    0.0000 H   0  0
    5.6720   -1.8700    0.0000 H   0  0
    2.2270   -1.5230    0.0000 H   0  0
    2.0000   -2.3700    0.0000 H   0  0
    2.8470   -2.5970    0.0000 H   0  0
    2.0000   -0.3700    0.0000 H   0  0
    5.1350    2.0600    0.0000 H   0  0
    7.4040   -0.2500    0.0000 H   0  0
  1  7  1  0
  1 21  1  0
  2  9  1  0
  2 22  1  0
  3 10  1  0
  3 23  1  0
  4  8  2  0
  4 11  1  0
  5  6  1  0
  5  7  2  0
  5  9  1  0
  6 10  1  0
  6 11  2  0
  7  8  1  0
  8 12  1  0
  9 13  1  0
  9 14  1  0
 10 15  1  0
 10 16  1  0
 11 17  1  0
 12 18  1  0
 12 19  1  0
 12 20  1  0
M  END
> <Name>
1054

> <PUBCHEM_COMPOUND_CID>
1054

> <Toxicity>
0

> <Data Set>
TrainingSet

$$$$
4993
  SciTegic12242523262D

 30 31  0  0  0  0            999 V2000
    4.2690    3.6550    0.0000 Cl  0  0
    5.1350   -1.8450    0.0000 N   0  0
    3.4030   -1.8450    0.0000 N   0  0
    2.5370   -0.3450    0.0000 N   0  0
    4.2690   -3.3450    0.0000 N   0  0
    4.2690   -0.3450    0.0000 C   0  0
    5.1350   -0.8450    0.0000 C   0  0
    6.0010   -0.3450    0.0000 C   0  0
    4.2690    0.6550    0.0000 C   0  0
    3.4030   -0.8450    0.0000 C   0  0
    5.1350    1.1550    0.0000 C   0  0
    3.4030    1.1550    0.0000 C   0  0
    6.8670   -0.8450    0.0000 C   0  0
    4.2690   -2.3450    0.0000 C   0  0
    5.1350    2.1550    0.0000 C   0  0
    3.4030    2.1550    0.0000 C   0  0
    4.2690    2.6550    0.0000 C   0  0
    6.4000    0.1300    0.0000 H   0  0
    5.6020    0.1300    0.0000 H   0  0
    5.6720    0.8450    0.0000 H   0  0
    2.8660    0.8450    0.0000 H   0  0
    6.5570   -1.3820    0.0000 H   0  0
    7.4040   -1.1550    0.0000 H   0  0
    7.1770   -0.3080    0.0000 H   0  0
    5.6720    2.4650    0.0000 H   0  0
    2.8660    2.4650    0.0000 H   0  0
    2.0000   -0.6550    0.0000 H   0  0
    2.5370    0.2750    0.0000 H   0  0
    4.8060   -3.6550    0.0000 H   0  0
    3.7320   -3.6550    0.0000 H   0  0
  1 17  1  0
  2  7  2  0
  2 14  1  0
  3 10  1  0
  3 14  2  0
  4 10  1  0
  4 27  1  0
  4 28  1  0
  5 14  1  0
  5 29  1  0
  5 30  1  0
  6  7  1  0
  6  9  1  0
  6 10  2  0
  7  8  1  0
  8 13  1  0
  8 18  1  0
  8 19  1  0
  9 11  2  0
  9 12  1  0
 11 15  1  0
 11 20  1  0
 12 16  2  0
 12 21  1  0
 13 22  1  0
 13 23  1  0
 13 24  1  0
 15 17  2  0
 15 25  1  0
 16 17  1  0
 16 26  1  0
M  END
> <Name>
4993

> <PUBCHEM_COMPOUND_CID>
4993

> <Toxicity>
1

> <Data Set>
TrainingSet

$$$$
5002
  SciTegic12242523262D

 52 55  0  0  0  0            999 V2000
    4.8830   -5.1740    0.0000 S   0  0
    2.7770    2.3480    0.0000 O   0  0
    3.4700    4.9010    0.0000 O   0  0
    3.0810   -0.2800    0.0000 N   0  0
    3.9490   -2.0820    0.0000 N   0  0
    5.3830   -2.9830    0.0000 N   0  0
    2.5180   -1.1060    0.0000 C   0  0
    4.0790   -0.3550    0.0000 C   0  0
    2.9520   -2.0070    0.0000 C   0  0
    4.5120   -1.2560    0.0000 C   0  0
    2.6480    0.6210    0.0000 C   0  0
    4.3830   -2.9830    0.0000 C   0  0
    3.2110    1.4470    0.0000 C   0  0
    3.7600   -3.7650    0.0000 C   0  0
    3.9820   -4.7400    0.0000 C   0  0
    2.7690   -3.4430    0.0000 C   0  0
    6.0060   -3.7650    0.0000 C   0  0
    5.7840   -4.7400    0.0000 C   0  0
    3.2300   -5.4600    0.0000 C   0  0
    3.3400    3.1740    0.0000 C   0  0
    2.0000   -4.1450    0.0000 C   0  0
    2.2320   -5.1610    0.0000 C   0  0
    6.9970   -3.4430    0.0000 C   0  0
    6.5360   -5.4600    0.0000 C   0  0
    2.9060    4.0750    0.0000 C   0  0
    7.7660   -4.1450    0.0000 C   0  0
    7.5340   -5.1610    0.0000 C   0  0
    2.0740   -0.6740    0.0000 H   0  0
    2.0150   -1.4680    0.0000 H   0  0
    4.6750   -0.1870    0.0000 H   0  0
    4.0170    0.2620    0.0000 H   0  0
    2.3550   -2.1750    0.0000 H   0  0
    3.0140   -2.6240    0.0000 H   0  0
    4.9560   -1.6890    0.0000 H   0  0
    5.0160   -0.8940    0.0000 H   0  0
    2.2040    1.0540    0.0000 H   0  0
    2.1440    0.2590    0.0000 H   0  0
    3.6550    1.0140    0.0000 H   0  0
    3.7140    1.8090    0.0000 H   0  0
    2.6380   -2.8370    0.0000 H   0  0
    3.3740   -6.0630    0.0000 H   0  0
    3.7840    2.7410    0.0000 H   0  0
    3.8440    3.5360    0.0000 H   0  0
    1.4080   -3.9600    0.0000 H   0  0
    1.7790   -5.5840    0.0000 H   0  0
    7.1280   -2.8370    0.0000 H   0  0
    6.3920   -6.0630    0.0000 H   0  0
    2.4630    4.5080    0.0000 H   0  0
    2.4030    3.7130    0.0000 H   0  0
    8.3580   -3.9600    0.0000 H   0  0
    7.9870   -5.5840    0.0000 H   0  0
    3.2010    5.4600    0.0000 H   0  0
  1 15  1  0
  1 18  1  0
  2 13  1  0
  2 20  1  0
  3 25  1  0
  3 52  1  0
  4  7  1  0
  4  8  1  0
  4 11  1  0
  5  9  1  0
  5 10  1  0
  5 12  1  0
  6 12  2  0
  6 17  1  0
  7  9  1  0
  7 28  1  0
  7 29  1  0
  8 10  1  0
  8 30  1  0
  8 31  1  0
  9 32  1  0
  9 33  1  0
 10 34  1  0
 10 35  1  0
 11 13  1  0
 11 36  1  0
 11 37  1  0
 12 14  1  0
 13 38  1  0
 13 39  1  0
 14 15  2  0
 14 16  1  0
 15 19  1  0
 16 21  2  0
 16 40  1  0
 17 18  2  0
 17 23  1  0
 18 24  1  0
 19 22  2  0
 19 41  1  0
 20 25  1  0
 20 42  1  0
 20 43  1  0
 21 22  1  0
 21 44  1  0
 22 45  1  0
 23 26  2  0
 23 46  1  0
 24 27  2  0
 24 47  1  0
 25 48  1  0
 25 49  1  0
 26 27  1  0
 26 50  1  0
 27 51  1  0
M  END
> <Name>
5002

> <PUBCHEM_COMPOUND_CID>
5002

> <Toxicity>
0

> <Data Set>
TrainingSet

$$$$
54892
  SciTegic12242523262D

 62 64  0  0  1  0            999 V2000
    7.2640    1.8450    0.0000 O   0  0
    6.3980    4.3450    0.0000 O   0  0
    7.2640    2.8450    0.0000 O   0  0
    8.1300   -2.6550    0.0000 O   0  0
    8.9960   -1.1550    0.0000 O   0  0
    5.5320    1.8450    0.0000 N   0  0
    7.2640   -0.1550    0.0000 N   0  0
    5.5320    2.8450    0.0000 C   0  0  1  0  0  0
    4.6660    3.3450    0.0000 C   0  0
    4.6660    1.3450    0.0000 C   0  0
    3.8000    2.8450    0.0000 C   0  0
    3.8000    1.8450    0.0000 C   0  0
    6.3980    0.3450    0.0000 C   0  0  2  0  0  0
    6.3980    1.3450    0.0000 C   0  0
    7.2640   -1.1550    0.0000 C   0  0  1  0  0  0
    6.3980    3.3450    0.0000 C   0  0
    6.3980   -1.6550    0.0000 C   0  0
    2.9060    3.3800    0.0000 C   0  0
    2.9060    1.3100    0.0000 C   0  0
    5.5320   -0.1550    0.0000 C   0  0
    6.3980   -2.6550    0.0000 C   0  0
    2.0000    2.8660    0.0000 C   0  0
    2.0000    1.8240    0.0000 C   0  0
    8.1300   -1.6550    0.0000 C   0  0
    5.5320   -3.1550    0.0000 C   0  0
    4.6660   -2.6550    0.0000 C   0  0
    5.5320   -4.1550    0.0000 C   0  0
    8.9960   -3.1550    0.0000 C   0  0
    3.8000   -3.1550    0.0000 C   0  0
    4.6660   -4.6550    0.0000 C   0  0
    3.8000   -4.1550    0.0000 C   0  0
    8.9960   -4.1550    0.0000 C   0  0
    6.0690    2.5350    0.0000 H   0  0
    5.0650    3.8200    0.0000 H   0  0
    4.2680    3.8200    0.0000 H   0  0
    4.2680    0.8700    0.0000 H   0  0
    5.0650    0.8700    0.0000 H   0  0
    6.3980   -0.2750    0.0000 H   0  0
    7.8010   -0.8450    0.0000 H   0  0
    7.8010    0.1550    0.0000 H   0  0
    6.1860   -1.0720    0.0000 H   0  0
    5.7880   -1.7630    0.0000 H   0  0
    2.9130    4.0000    0.0000 H   0  0
    2.9130    0.6900    0.0000 H   0  0
    5.2220    0.3820    0.0000 H   0  0
    4.9950   -0.4650    0.0000 H   0  0
    5.8420   -0.6920    0.0000 H   0  0
    6.6100   -3.2380    0.0000 H   0  0
    7.0090   -2.5470    0.0000 H   0  0
    1.4640    3.1780    0.0000 H   0  0
    1.4640    1.5120    0.0000 H   0  0
    6.9350    4.6550    0.0000 H   0  0
    4.6660   -2.0350    0.0000 H   0  0
    6.0690   -4.4650    0.0000 H   0  0
    9.6070   -3.2630    0.0000 H   0  0
    9.2080   -2.5720    0.0000 H   0  0
    3.2630   -2.8450    0.0000 H   0  0
    4.6660   -5.2750    0.0000 H   0  0
    3.2630   -4.4650    0.0000 H   0  0
    8.3760   -4.1550    0.0000 H   0  0
    8.9960   -4.7750    0.0000 H   0  0
    9.6160   -4.1550    0.0000 H   0  0
  1 14  2  0
  2 16  1  0
  2 52  1  0
  3 16  2  0
  4 24  1  0
  4 28  1  0
  5 24  2  0
  6  8  1  0
  6 10  1  0
  6 14  1  0
  7 13  1  0
  7 15  1  0
  7 40  1  0
  8  9  1  0
  8 16  1  1
  8 33  1  6
  9 11  1  0
  9 34  1  0
  9 35  1  0
 10 12  1  0
 10 36  1  0
 10 37  1  0
 11 12  1  0
 11 18  2  0
 12 19  2  0
 13 14  1  0
 13 20  1  1
 13 38  1  6
 15 17  1  0
 15 24  1  6
 15 39  1  1
 17 21  1  0
 17 41  1  0
 17 42  1  0
 18 22  1  0
 18 43  1  0
 19 23  1  0
 19 44  1  0
 20 45  1  0
 20 46  1  0
 20 47  1  0
 21 25  1  0
 21 48  1  0
 21 49  1  0
 22 23  2  0
 22 50  1  0
 23 51  1  0
 25 26  2  0
 25 27  1  0
 26 29  1  0
 26 53  1  0
 27 30  2  0
 27 54  1  0
 28 32  1  0
 28 55  1  0
 28 56  1  0
 29 31  2  0
 29 57  1  0
 30 31  1  0
 30 58  1  0
 31 59  1  0
 32 60  1  0
 32 61  1  0
 32 62  1  0
M  END
> <Name>
54892

> <PUBCHEM_COMPOUND_CID>
54892

> <Toxicity>
0

> <Data Set>
TestSet

$$$$
3034034
  SciTegic12242523262D

 48 51  0  0  1  0            999 V2000
    5.5320    0.2350    0.0000 O   0  0
    2.8680   -1.2410    0.0000 O   0  0
    7.9560    1.4510    0.0000 N   0  0
    6.3980   -3.2650    0.0000 N   0  0
    8.8220    1.9510    0.0000 C   0  0  1  0  0  0
    7.2640    0.2350    0.0000 C   0  0  1  0  0  0
    8.2300   -0.0240    0.0000 C   0  0
   10.2110    1.3990    0.0000 C   0  0  2  0  0  0
    8.1920    3.3000    0.0000 C   0  0
    9.7880    0.4920    0.0000 C   0  0
    7.3260    2.8000    0.0000 C   0  0
    6.3980   -0.2650    0.0000 C   0  0  1  0  0  0
   11.1510    1.7410    0.0000 C   0  0
    6.3980   -1.2650    0.0000 C   0  0
   11.9170    1.0980    0.0000 C   0  0
    5.5320   -1.7650    0.0000 C   0  0
    7.2640   -1.7650    0.0000 C   0  0
    5.5320   -2.7650    0.0000 C   0  0
    4.6380   -1.2300    0.0000 C   0  0
    7.2640   -2.7650    0.0000 C   0  0
    4.6380   -3.3000    0.0000 C   0  0
    3.7320   -1.7440    0.0000 C   0  0
    3.7320   -2.7860    0.0000 C   0  0
    2.0000   -1.7380    0.0000 C   0  0
    9.5580    2.3760    0.0000 H   0  0
    8.0480    0.5630    0.0000 H   0  0
    8.0640   -0.6210    0.0000 H   0  0
    8.8260   -0.1960    0.0000 H   0  0
   10.2200    2.0190    0.0000 H   0  0
    8.7460    3.5780    0.0000 H   0  0
    7.8980    3.8450    0.0000 H   0  0
    9.5090   -0.0610    0.0000 H   0  0
   10.3460    0.2220    0.0000 H   0  0
    7.0320    3.3450    0.0000 H   0  0
    6.7720    2.5210    0.0000 H   0  0
    6.3980    0.3550    0.0000 H   0  0
   11.2580    2.3510    0.0000 H   0  0
    5.5320    0.8550    0.0000 H   0  0
   11.8090    0.4870    0.0000 H   0  0
   12.4990    1.3100    0.0000 H   0  0
    7.8010   -1.4550    0.0000 H   0  0
    4.6450   -0.6100    0.0000 H   0  0
    7.8010   -3.0750    0.0000 H   0  0
    4.6450   -3.9200    0.0000 H   0  0
    3.1960   -3.0980    0.0000 H   0  0
    1.6920   -1.1990    0.0000 H   0  0
    1.4620   -2.0450    0.0000 H   0  0
    2.3080   -2.2760    0.0000 H   0  0
 12  1  1  1
  1 38  1  0
  2 22  1  0
  2 24  1  0
  3  6  1  0
  3 10  1  0
  3 11  1  0
  4 18  1  0
  4 20  2  0
  5  7  1  0
  5  8  1  0
  5  9  1  0
  5 25  1  1
  6  7  1  0
  6 12  1  0
  6 26  1  6
  7 27  1  0
  7 28  1  0
  8 10  1  0
  8 13  1  1
  8 29  1  6
  9 11  1  0
  9 30  1  0
  9 31  1  0
 10 32  1  0
 10 33  1  0
 11 34  1  0
 11 35  1  0
 12 14  1  0
 12 36  1  6
 13 15  2  0
 13 37  1  0
 14 16  1  0
 14 17  2  0
 15 39  1  0
 15 40  1  0
 16 18  1  0
 16 19  2  0
 17 20  1  0
 17 41  1  0
 18 21  2  0
 19 22  1  0
 19 42  1  0
 20 43  1  0
 21 23  1  0
 21 44  1  0
 22 23  2  0
 23 45  1  0
 24 46  1  0
 24 47  1  0
 24 48  1  0
M  END
> <Name>
3034034

> <PUBCHEM_COMPOUND_CID>
3034034

> <Toxicity>
0

> <Data Set>
TrainingSet

$$$$
5035
  SciTegic12242523262D

 61 65  0  0  0  0            999 V2000
    5.5440   -4.6340    0.0000 S   0  0
    3.1840    0.9030    0.0000 O   0  0
    6.8340   -1.8680    0.0000 O   0  0
    2.0000   -4.8290    0.0000 O   0  0
   10.1280   -3.8290    0.0000 O   0  0
    3.1370    3.5480    0.0000 N   0  0
    4.1160    3.7550    0.0000 C   0  0
    2.4690    4.2930    0.0000 C   0  0
    4.4260    4.7050    0.0000 C   0  0
    2.7800    5.2430    0.0000 C   0  0
    3.7580    5.4490    0.0000 C   0  0
    2.8260    2.5980    0.0000 C   0  0
    3.4940    1.8540    0.0000 C   0  0
    3.8510    0.1590    0.0000 C   0  0
    5.5440   -3.0250    0.0000 C   0  0
    4.5980   -3.3290    0.0000 C   0  0
    6.1280   -3.8290    0.0000 C   0  0
    4.5980   -4.3290    0.0000 C   0  0
    5.1870   -1.3300    0.0000 C   0  0
    5.8550   -2.0740    0.0000 C   0  0
    4.8300    0.3650    0.0000 C   0  0
    3.5410   -0.7920    0.0000 C   0  0
    5.4980   -0.3790    0.0000 C   0  0
    4.2090   -1.5360    0.0000 C   0  0
    7.1280   -3.8290    0.0000 C   0  0
    3.7320   -2.8290    0.0000 C   0  0
    3.7320   -4.8290    0.0000 C   0  0
    2.8660   -3.3290    0.0000 C   0  0
    2.8660   -4.3290    0.0000 C   0  0
    7.6280   -4.6960    0.0000 C   0  0
    7.6280   -2.9630    0.0000 C   0  0
    8.6280   -4.6960    0.0000 C   0  0
    8.6280   -2.9630    0.0000 C   0  0
    9.1280   -3.8290    0.0000 C   0  0
    4.1360    3.1350    0.0000 H   0  0
    4.7290    3.6670    0.0000 H   0  0
    1.9220    4.5850    0.0000 H   0  0
    2.0870    3.8050    0.0000 H   0  0
    4.9730    4.4130    0.0000 H   0  0
    4.8090    5.1930    0.0000 H   0  0
    2.7590    5.8630    0.0000 H   0  0
    2.1660    5.3310    0.0000 H   0  0
    4.2850    5.7770    0.0000 H   0  0
    3.5270    6.0250    0.0000 H   0  0
    2.2800    2.8900    0.0000 H   0  0
    2.4440    2.1100    0.0000 H   0  0
    4.0410    1.5620    0.0000 H   0  0
    3.8770    2.3420    0.0000 H   0  0
    5.0220    0.9540    0.0000 H   0  0
    2.9340   -0.9200    0.0000 H   0  0
    6.1040   -0.2520    0.0000 H   0  0
    4.0160   -2.1250    0.0000 H   0  0
    3.7320   -2.2090    0.0000 H   0  0
    3.7320   -5.4490    0.0000 H   0  0
    2.3290   -3.0190    0.0000 H   0  0
    7.3180   -5.2320    0.0000 H   0  0
    7.3180   -2.4260    0.0000 H   0  0
    8.9380   -5.2320    0.0000 H   0  0
    8.9380   -2.4260    0.0000 H   0  0
    2.0000   -5.4490    0.0000 H   0  0
   10.4380   -4.3660    0.0000 H   0  0
  1 17  1  0
  1 18  1  0
  2 13  1  0
  2 14  1  0
  3 20  2  0
  4 29  1  0
  4 60  1  0
  5 34  1  0
  5 61  1  0
  6  7  1  0
  6  8  1  0
  6 12  1  0
  7  9  1  0
  7 35  1  0
  7 36  1  0
  8 10  1  0
  8 37  1  0
  8 38  1  0
  9 11  1  0
  9 39  1  0
  9 40  1  0
 10 11  1  0
 10 41  1  0
 10 42  1  0
 11 43  1  0
 11 44  1  0
 12 13  1  0
 12 45  1  0
 12 46  1  0
 13 47  1  0
 13 48  1  0
 14 21  2  0
 14 22  1  0
 15 16  1  0
 15 17  2  0
 15 20  1  0
 16 18  2  0
 16 26  1  0
 17 25  1  0
 18 27  1  0
 19 20  1  0
 19 23  2  0
 19 24  1  0
 21 23  1  0
 21 49  1  0
 22 24  2  0
 22 50  1  0
 23 51  1  0
 24 52  1  0
 25 30  2  0
 25 31  1  0
 26 28  2  0
 26 53  1  0
 27 29  2  0
 27 54  1  0
 28 29  1  0
 28 55  1  0
 30 32  1  0
 30 56  1  0
 31 33  2  0
 31 57  1  0
 32 34  2  0
 32 58  1  0
 33 34  1  0
 33 59  1  0
M  END
> <Name>
5035

> <PUBCHEM_COMPOUND_CID>
5035

> <Toxicity>
1

> <Data Set>
TrainingSet

$$$$
219024
  SciTegic12242523262D

 46 49  0  0  1  0            999 V2000
    9.6970    0.8250    0.0000 O   0  0
    7.1590    1.3300    0.0000 O   0  0
    8.4410    3.0870    0.0000 O   0  0
   11.4220    2.0030    0.0000 O   0  0
    3.9890    2.6880    0.0000 O   0  0
    8.4350   -0.4330    0.0000 N   0  0
    8.4350   -2.0420    0.0000 N   0  0
    6.6230   -0.2380    0.0000 N   0  0
    5.7570   -1.7380    0.0000 N   0  0
    4.8910   -0.2380    0.0000 N   0  0
    6.6230   -3.2380    0.0000 N   0  0
    3.9770   -0.6440    0.0000 N   0  0
    2.4070    1.9830    0.0000 N   0  0
    8.1590    1.3280    0.0000 C   0  0  1  0  0  0
    8.7460    0.5180    0.0000 C   0  0  1  0  0  0
    8.7480    2.1360    0.0000 C   0  0  1  0  0  0
    9.6990    1.8250    0.0000 C   0  0  1  0  0  0
   10.5090    2.4120    0.0000 C   0  0
    7.4890   -0.7380    0.0000 C   0  0
    9.0190   -1.2380    0.0000 C   0  0
    7.4890   -1.7380    0.0000 C   0  0
    6.6230   -2.2380    0.0000 C   0  0
    5.7570   -0.7380    0.0000 C   0  0
    4.7860    0.7570    0.0000 C   0  0
    3.8080    0.9650    0.0000 C   0  0
    3.3080    0.0990    0.0000 C   0  0
    3.4010    1.8780    0.0000 C   0  0
    2.0000    2.8970    0.0000 C   0  0
    7.8790    1.8810    0.0000 H   0  0
    8.1330    0.4220    0.0000 H   0  0
    8.1360    2.2340    0.0000 H   0  0
   10.2510    1.5430    0.0000 H   0  0
   10.8570    2.9250    0.0000 H   0  0
   10.0640    2.8430    0.0000 H   0  0
    6.8500    1.8670    0.0000 H   0  0
    8.8570    3.5480    0.0000 H   0  0
    9.6390   -1.2380    0.0000 H   0  0
   11.9240    2.3670    0.0000 H   0  0
    6.0860   -3.5480    0.0000 H   0  0
    7.1600   -3.5480    0.0000 H   0  0
    5.2470    1.1720    0.0000 H   0  0
    2.6910    0.0340    0.0000 H   0  0
    2.0420    1.4820    0.0000 H   0  0
    2.5660    3.1490    0.0000 H   0  0
    1.7480    3.4630    0.0000 H   0  0
    1.4340    2.6440    0.0000 H   0  0
  1 15  1  0
  1 17  1  0
 14  2  1  6
  2 35  1  0
 16  3  1  6
  3 36  1  0
  4 18  1  0
  4 38  1  0
  5 27  2  0
 15  6  1  1
  6 19  1  0
  6 20  1  0
  7 20  2  0
  7 21  1  0
  8 19  1  0
  8 23  2  0
  9 22  2  0
  9 23  1  0
 10 12  1  0
 10 23  1  0
 10 24  1  0
 11 22  1  0
 11 39  1  0
 11 40  1  0
 12 26  2  0
 13 27  1  0
 13 28  1  0
 13 43  1  0
 14 15  1  0
 14 16  1  0
 14 29  1  1
 15 30  1  6
 16 17  1  0
 16 31  1  1
 17 18  1  1
 17 32  1  6
 18 33  1  0
 18 34  1  0
 19 21  2  0
 20 37  1  0
 21 22  1  0
 24 25  2  0
 24 41  1  0
 25 26  1  0
 25 27  1  0
 26 42  1  0
 28 44  1  0
 28 45  1  0
 28 46  1  0
M  END
> <Name>
219024

> <PUBCHEM_COMPOUND_CID>
219024

> <Toxicity>
1

> <Data Set>
TrainingSet

$$$$
37542
  SciTegic12242523262D

 29 30  0  0  1  0            999 V2000
    5.0300   -1.5120    0.0000 O   0  0
    2.4610   -1.2030    0.0000 O   0  0
    3.1330   -3.2720    0.0000 O   0  0
    6.3030   -3.1680    0.0000 O   0  0
    6.3030    2.3190    0.0000 O   0  0
    4.2210    0.0760    0.0000 N   0  0
    5.0300    0.6630    0.0000 N   0  0
    3.7210    1.6140    0.0000 N   0  0
    4.9020    3.3370    0.0000 N   0  0
    3.7210   -2.4630    0.0000 C   0  0  1  0  0  0
    3.4120   -1.5120    0.0000 C   0  0  2  0  0  0
    4.7210   -2.4630    0.0000 C   0  0  1  0  0  0
    4.2210   -0.9240    0.0000 C   0  0  1  0  0  0
    5.3090   -3.2720    0.0000 C   0  0
    3.4120    0.6630    0.0000 C   0  0
    4.7210    1.6140    0.0000 C   0  0
    5.3090    2.4240    0.0000 C   0  0
    3.3150   -0.9000    0.0000 H   0  0
    3.1080   -2.3660    0.0000 H   0  0
    5.3330   -2.3660    0.0000 H   0  0
    3.6680   -0.6430    0.0000 H   0  0
    4.7510   -3.5440    0.0000 H   0  0
    5.4800   -3.8680    0.0000 H   0  0
    2.0000   -1.6180    0.0000 H   0  0
    3.3850   -3.8390    0.0000 H   0  0
    2.8220    0.4720    0.0000 H   0  0
    6.6680   -3.6690    0.0000 H   0  0
    5.2660    3.8390    0.0000 H   0  0
    4.2850    3.4020    0.0000 H   0  0
  1 12  1  0
  1 13  1  0
 11  2  1  1
  2 24  1  0
 10  3  1  1
  3 25  1  0
  4 14  1  0
  4 27  1  0
  5 17  2  0
  6  7  1  0
 13  6  1  6
  6 15  1  0
  7 16  2  0
  8 15  2  0
  8 16  1  0
  9 17  1  0
  9 28  1  0
  9 29  1  0
 10 11  1  0
 10 12  1  0
 10 19  1  6
 11 13  1  0
 11 18  1  6
 12 14  1  6
 12 20  1  1
 13 21  1  1
 14 22  1  0
 14 23  1  0
 15 26  1  0
 16 17  1  0
M  END
> <Name>
37542

> <PUBCHEM_COMPOUND_CID>
37542

> <Toxicity>
1

> <Data Set>
TrainingSet

$$$$
493570
  SciTegic12242523262D

 47 49  0  0  1  0            999 V2000
    3.7980   -0.0430    0.0000 O   0  0
    5.5300    1.9570    0.0000 O   0  0
    2.9320    1.4570    0.0000 O   0  0
    2.9320    3.4570    0.0000 O   0  0
    7.2780   -4.0770    0.0000 O   0  0
    9.0600   -1.0190    0.0000 O   0  0
    5.5300   -1.0430    0.0000 N   0  0
    5.5300   -3.0430    0.0000 N   0  0
    7.2900   -1.0080    0.0000 N   0  0
    8.1960   -2.5640    0.0000 N   0  0
    4.6640    0.4570    0.0000 C   0  0  1  0  0  0
    5.5300   -0.0430    0.0000 C   0  0
    4.6640    1.4570    0.0000 C   0  0  1  0  0  0
    3.7980    1.9570    0.0000 C   0  0  1  0  0  0
    4.6640   -1.5430    0.0000 C   0  0
    6.3960   -1.5430    0.0000 C   0  0
    4.6640   -2.5430    0.0000 C   0  0
    3.7700   -1.0080    0.0000 C   0  0
    6.3960   -2.5430    0.0000 C   0  0
    3.7980    2.9570    0.0000 C   0  0
    2.8640   -1.5220    0.0000 C   0  0
    3.7700   -3.0770    0.0000 C   0  0
    2.8640   -2.5640    0.0000 C   0  0
    7.2900   -3.0770    0.0000 C   0  0
    2.0000   -1.0190    0.0000 C   0  0
    2.0000   -3.0670    0.0000 C   0  0
    8.1960   -1.5220    0.0000 C   0  0
    4.6640   -0.1630    0.0000 H   0  0
    6.1410   -0.1500    0.0000 H   0  0
    5.7420    0.5400    0.0000 H   0  0
    4.6640    2.0770    0.0000 H   0  0
    3.7980    1.3370    0.0000 H   0  0
    3.7770   -0.3880    0.0000 H   0  0
    4.4090    2.8500    0.0000 H   0  0
    4.0100    3.5400    0.0000 H   0  0
    3.7770   -3.6970    0.0000 H   0  0
    3.2610    0.2670    0.0000 H   0  0
    5.5300    2.5770    0.0000 H   0  0
    2.3950    1.7670    0.0000 H   0  0
    2.3120   -0.4830    0.0000 H   0  0
    1.4640   -0.7060    0.0000 H   0  0
    1.6880   -1.5540    0.0000 H   0  0
    1.6880   -2.5310    0.0000 H   0  0
    1.4640   -3.3790    0.0000 H   0  0
    2.3120   -3.6030    0.0000 H   0  0
    8.7320   -2.8760    0.0000 H   0  0
    2.9320    4.0770    0.0000 H   0  0
 11  1  1  6
  1 37  1  0
 13  2  1  1
  2 38  1  0
 14  3  1  6
  3 39  1  0
  4 20  1  0
  4 47  1  0
  5 24  2  0
  6 27  2  0
  7 12  1  0
  7 15  1  0
  7 16  1  0
  8 17  1  0
  8 19  2  0
  9 16  2  0
  9 27  1  0
 10 24  1  0
 10 27  1  0
 10 46  1  0
 11 12  1  0
 11 13  1  0
 11 28  1  1
 12 29  1  0
 12 30  1  0
 13 14  1  0
 13 31  1  6
 14 20  1  0
 14 32  1  1
 15 17  1  0
 15 18  2  0
 16 19  1  0
 17 22  2  0
 18 21  1  0
 18 33  1  0
 19 24  1  0
 20 34  1  0
 20 35  1  0
 21 23  2  0
 21 25  1  0
 22 23  1  0
 22 36  1  0
 23 26  1  0
 25 40  1  0
 25 41  1  0
 25 42  1  0
 26 43  1  0
 26 44  1  0
 26 45  1  0
M  END
> <Name>
493570

> <PUBCHEM_COMPOUND_CID>
493570

> <Toxicity>
0

> <Data Set>
TrainingSet

$$$$
135398735
  SciTegic12242523262D

117121  0  0  1  0            999 V2000
    5.8050   -2.5260    0.0000 O   0  0
    3.9700   -1.8720    0.0000 O   0  0
    4.6260    0.9770    0.0000 O   0  0
    7.8720   -2.9420    0.0000 O   0  0
   10.3860   -1.2470    0.0000 O   0  0
   10.8590    0.6590    0.0000 O   0  0
    6.9440   -3.8310    0.0000 O   0  0
    9.7760   -1.0960    0.0000 O   0  0
    9.2560    3.8260    0.0000 O   0  0
    8.1470    0.0330    0.0000 O   0  0
    7.5070    3.8600    0.0000 O   0  0
    4.0540    1.8750    0.0000 O   0  0
    5.0900   -0.9670    0.0000 N   0  0
    3.8100   -2.5040    0.0000 N   0  0
    5.6920    1.9070    0.0000 N   0  0
    5.7290   -0.1980    0.0000 N   0  0
    5.4720   -0.8260    0.0000 C   0  0  2  0  0  0
    4.4900   -1.0190    0.0000 C   0  0  1  0  0  0
    6.1290   -1.5790    0.0000 C   0  0  1  0  0  0
    3.6600   -0.4610    0.0000 C   0  0  1  0  0  0
    7.1100   -1.3870    0.0000 C   0  0  1  0  0  0
    3.7280    0.5370    0.0000 C   0  0  2  0  0  0
    6.4530   -0.6330    0.0000 C   0  0
    7.9400   -1.9440    0.0000 C   0  0  2  0  0  0
    2.8980    1.0940    0.0000 C   0  0  1  0  0  0
    2.7620   -0.9010    0.0000 C   0  0
    7.3080   -0.4060    0.0000 C   0  0
    2.0000    0.6540    0.0000 C   0  0
    8.8380   -1.5040    0.0000 C   0  0
    2.9660    2.0920    0.0000 C   0  0
    5.9980   -3.5070    0.0000 C   0  0
    9.6680   -2.0620    0.0000 C   0  0
    3.8640    2.5320    0.0000 C   0  0
    8.7030   -3.5000    0.0000 C   0  0
   10.4540   -0.2490    0.0000 C   0  0  1  0  0  0
    5.2440   -4.1640    0.0000 C   0  0
    9.2560    0.8260    0.0000 C   0  0
    9.4650   -0.1460    0.0000 C   0  0
   10.1220    1.3260    0.0000 C   0  0
    8.3900    1.3260    0.0000 C   0  0
    3.9320    3.5300    0.0000 C   0  0
   11.4240   -0.4900    0.0000 C   0  0
    8.3900    2.3260    0.0000 C   0  0
   10.1220    2.3260    0.0000 C   0  0
    9.2560    2.8260    0.0000 C   0  0
    7.4960    0.7910    0.0000 C   0  0
    7.4960    2.8610    0.0000 C   0  0
    4.9290    3.4620    0.0000 C   0  0
    6.5900    1.3050    0.0000 C   0  0
    6.5900    2.3470    0.0000 C   0  0
   10.9880    2.8260    0.0000 C   0  0
    4.1040   -0.7970    0.0000 C   0  0
    5.4350   -1.9050    0.0000 C   0  0
    3.4640   -1.5650    0.0000 C   0  0
    4.7950   -2.6740    0.0000 C   0  0
    4.8620    2.4640    0.0000 C   0  0
    5.7260    0.8020    0.0000 C   0  0
    5.6830    4.1190    0.0000 C   0  0
    3.1700   -3.2720    0.0000 C   0  0
    5.3520   -0.2180    0.0000 H   0  0
    4.8450   -1.5270    0.0000 H   0  0
    5.5210   -1.6990    0.0000 H   0  0
    3.1460   -0.1150    0.0000 H   0  0
    6.6730   -0.9470    0.0000 H   0  0
    3.7700    1.1550    0.0000 H   0  0
    6.5720   -1.2420    0.0000 H   0  0
    7.0610   -0.5140    0.0000 H   0  0
    6.3330   -0.0250    0.0000 H   0  0
    7.3840   -2.2170    0.0000 H   0  0
    2.3830    1.4400    0.0000 H   0  0
    2.4890   -0.3440    0.0000 H   0  0
    2.2060   -1.1740    0.0000 H   0  0
    3.0350   -1.4580    0.0000 H   0  0
    7.9160   -0.5290    0.0000 H   0  0
    7.4300    0.2010    0.0000 H   0  0
    6.7000   -0.2840    0.0000 H   0  0
    4.5770   -1.9950    0.0000 H   0  0
    1.7270    1.2110    0.0000 H   0  0
    1.4430    0.3820    0.0000 H   0  0
    2.2730    0.0980    0.0000 H   0  0
    8.8800   -0.8860    0.0000 H   0  0
    4.6680    1.5950    0.0000 H   0  0
    2.4510    2.4380    0.0000 H   0  0
    9.7190   -2.6800    0.0000 H   0  0
    4.4310    2.2810    0.0000 H   0  0
    8.3570   -4.0140    0.0000 H   0  0
    9.2170   -3.8450    0.0000 H   0  0
    9.0480   -2.9850    0.0000 H   0  0
    4.8370   -3.6970    0.0000 H   0  0
    4.7770   -4.5720    0.0000 H   0  0
    5.6520   -4.6310    0.0000 H   0  0
    3.5240    3.9970    0.0000 H   0  0
   11.2740   -1.0920    0.0000 H   0  0
   12.0260   -0.6400    0.0000 H   0  0
   11.5740    0.1110    0.0000 H   0  0
    4.3140   -0.2130    0.0000 H   0  0
    3.5660   -0.4890    0.0000 H   0  0
    5.8350   -2.3790    0.0000 H   0  0
    5.9710   -1.5930    0.0000 H   0  0
   11.2980    2.2890    0.0000 H   0  0
   11.5250    3.1360    0.0000 H   0  0
   10.6780    3.3630    0.0000 H   0  0
    3.0640   -1.0920    0.0000 H   0  0
    2.9280   -1.8770    0.0000 H   0  0
    4.5850   -3.2570    0.0000 H   0  0
    5.3330   -2.9820    0.0000 H   0  0
    6.0570    1.4060    0.0000 H   0  0
    5.2490    1.1980    0.0000 H   0  0
    6.0900    3.6520    0.0000 H   0  0
    6.1500    4.5270    0.0000 H   0  0
    5.2750    4.5870    0.0000 H   0  0
    9.7920    4.1360    0.0000 H   0  0
    2.6930   -2.8750    0.0000 H   0  0
    2.7730   -3.7490    0.0000 H   0  0
    3.6460   -3.6690    0.0000 H   0  0
    8.7560    0.1470    0.0000 H   0  0
    8.0480    4.1640    0.0000 H   0  0
 19  1  1  1
  1 31  1  0
 18  2  1  6
  2 77  1  0
 22  3  1  6
  3 82  1  0
 24  4  1  6
  4 34  1  0
  5 32  1  0
  5 35  1  0
  6 35  1  0
  6 39  1  0
  7 31  2  0
  8 38  2  0
  9 45  1  0
  9112  1  0
 10 46  1  0
 10116  1  0
 11 47  1  0
 11117  1  0
 12 56  2  0
 13 16  1  0
 13 52  1  0
 13 53  1  0
 14 54  1  0
 14 55  1  0
 14 59  1  0
 15 50  1  0
 15 56  1  0
 15107  1  0
 16 57  2  0
 17 18  1  0
 17 19  1  0
 17 23  1  1
 17 60  1  6
 18 20  1  0
 18 61  1  1
 19 21  1  0
 19 62  1  6
 20 22  1  0
 20 26  1  6
 20 63  1  1
 21 24  1  0
 21 27  1  6
 21 64  1  1
 22 25  1  0
 22 65  1  1
 23 66  1  0
 23 67  1  0
 23 68  1  0
 24 29  1  0
 24 69  1  1
 25 28  1  1
 25 30  1  0
 25 70  1  6
 26 71  1  0
 26 72  1  0
 26 73  1  0
 27 74  1  0
 27 75  1  0
 27 76  1  0
 28 78  1  0
 28 79  1  0
 28 80  1  0
 29 32  2  0
 29 81  1  0
 30 33  2  0
 30 83  1  0
 31 36  1  0
 32 84  1  0
 33 41  1  0
 33 85  1  0
 34 86  1  0
 34 87  1  0
 34 88  1  0
 35 38  1  0
 35 42  1  1
 36 89  1  0
 36 90  1  0
 36 91  1  0
 37 38  1  0
 37 39  1  0
 37 40  2  0
 39 44  2  0
 40 43  1  0
 40 46  1  0
 41 48  2  0
 41 92  1  0
 42 93  1  0
 42 94  1  0
 42 95  1  0
 43 45  2  0
 43 47  1  0
 44 45  1  0
 44 51  1  0
 46 49  2  0
 47 50  2  0
 48 56  1  0
 48 58  1  0
 49 50  1  0
 49 57  1  0
 51100  1  0
 51101  1  0
 51102  1  0
 52 54  1  0
 52 96  1  0
 52 97  1  0
 53 55  1  0
 53 98  1  0
 53 99  1  0
 54103  1  0
 54104  1  0
 55105  1  0
 55106  1  0
 57108  1  0
 58109  1  0
 58110  1  0
 58111  1  0
 59113  1  0
 59114  1  0
 59115  1  0
M  END
> <Name>
135398735

> <PUBCHEM_COMPOUND_CID>
135398735

> <Toxicity>
0

> <Data Set>
TrainingSet

$$$$
5070
  SciTegic12242523262D

 20 21  0  0  0  0            999 V2000
    7.2760    0.6220    0.0000 S   0  0
    2.0000   -0.1830    0.0000 F   0  0
    2.3660    1.1830    0.0000 F   0  0
    3.3660   -0.5490    0.0000 F   0  0
    3.7320    0.8170    0.0000 O   0  0
    7.2760   -0.9880    0.0000 N   0  0
    8.8600   -0.1830    0.0000 N   0  0
    6.3300    0.3170    0.0000 C   0  0
    6.3300   -0.6830    0.0000 C   0  0
    5.4640    0.8170    0.0000 C   0  0
    4.5980    0.3170    0.0000 C   0  0
    5.4640   -1.1830    0.0000 C   0  0
    4.5980   -0.6830    0.0000 C   0  0
    7.8600   -0.1830    0.0000 C   0  0
    2.8660    0.3170    0.0000 C   0  0
    5.4640    1.4370    0.0000 H   0  0
    5.4640   -1.8030    0.0000 H   0  0
    4.0610   -0.9930    0.0000 H   0  0
    9.1700   -0.7200    0.0000 H   0  0
    9.1700    0.3540    0.0000 H   0  0
  1  8  1  0
  1 14  1  0
  2 15  1  0
  3 15  1  0
  4 15  1  0
  5 11  1  0
  5 15  1  0
  6  9  1  0
  6 14  2  0
  7 14  1  0
  7 19  1  0
  7 20  1  0
  8  9  1  0
  8 10  2  0
  9 12  2  0
 10 11  1  0
 10 16  1  0
 11 13  2  0
 12 13  1  0
 12 17  1  0
 13 18  1  0
M  END
> <Name>
5070

> <PUBCHEM_COMPOUND_CID>
5070

> <Toxicity>
0

> <Data Set>
TrainingSet

$$$$
51049968
  SciTegic12242523262D

 67 72  0  0  1  0            999 V2000
    3.2470    3.4930    0.0000 F   0  0
    2.0000    5.0560    0.0000 F   0  0
    6.4220    0.7910    0.0000 O   0  0
    4.7340    0.4060    0.0000 O   0  0
    8.3510   -3.6640    0.0000 O   0  0
    5.9120   -0.8640    0.0000 N   0  0
    6.5790   -3.7890    0.0000 N   0  0
    6.4220    4.9880    0.0000 N   0  0
    7.8750    1.8550    0.0000 N   0  0
    7.4070   -5.1690    0.0000 N   0  0
    5.9530   -6.2680    0.0000 N   0  0
    6.3570   -2.8140    0.0000 C   0  0
    5.2250    3.7910    0.0000 C   0  0  2  0  0  0
    5.4010   -2.5190    0.0000 C   0  0
    7.0900   -2.1340    0.0000 C   0  0
    4.7910    2.8900    0.0000 C   0  0
    6.2000    4.0130    0.0000 C   0  0  1  0  0  0
    5.1780   -1.5440    0.0000 C   0  0
    6.8670   -1.1590    0.0000 C   0  0
    5.2250    1.9890    0.0000 C   0  0
    6.2000    1.7660    0.0000 C   0  0  2  0  0  0
    6.9810    3.3900    0.0000 C   0  0
    6.9810    2.3900    0.0000 C   0  0
    4.6010    4.5720    0.0000 C   0  0
    5.6890    0.1110    0.0000 C   0  0
    5.9240   -4.5370    0.0000 C   0  0
    7.4940   -4.1780    0.0000 C   0  0
    7.8750    3.9240    0.0000 C   0  0
    6.4390   -5.3940    0.0000 C   0  0
    3.6120    4.4230    0.0000 C   0  0
    4.9660    5.5030    0.0000 C   0  0
    4.9250   -4.5530    0.0000 C   0  0
    8.7810    3.4100    0.0000 C   0  0
    8.7810    2.3690    0.0000 C   0  0
    2.9890    5.2050    0.0000 C   0  0
    4.3430    6.2850    0.0000 C   0  0
    4.4390   -5.4280    0.0000 C   0  0
    3.3540    6.1360    0.0000 C   0  0
    4.9540   -6.2850    0.0000 C   0  0
    6.9490   -2.9960    0.0000 H   0  0
    4.6080    3.7210    0.0000 H   0  0
    4.7820   -2.5500    0.0000 H   0  0
    5.3240   -3.1340    0.0000 H   0  0
    7.4260   -2.6540    0.0000 H   0  0
    7.6610   -1.8930    0.0000 H   0  0
    4.3060    3.2760    0.0000 H   0  0
    4.3060    2.5030    0.0000 H   0  0
    6.7850    4.2180    0.0000 H   0  0
    4.8420   -1.0230    0.0000 H   0  0
    4.6070   -1.7850    0.0000 H   0  0
    7.4860   -1.1280    0.0000 H   0  0
    6.9440   -0.5430    0.0000 H   0  0
    4.6200    1.8510    0.0000 H   0  0
    5.2250    1.3690    0.0000 H   0  0
    6.7850    1.5610    0.0000 H   0  0
    7.0150    5.1710    0.0000 H   0  0
    5.9680    5.4100    0.0000 H   0  0
    7.8680    4.5440    0.0000 H   0  0
    5.5800    5.5960    0.0000 H   0  0
    7.8750   -5.5750    0.0000 H   0  0
    4.6060   -4.0220    0.0000 H   0  0
    9.3170    3.7230    0.0000 H   0  0
    9.3170    2.0570    0.0000 H   0  0
    4.5700    6.8620    0.0000 H   0  0
    3.8190   -5.4380    0.0000 H   0  0
    2.9680    6.6210    0.0000 H   0  0
    4.6520   -6.8270    0.0000 H   0  0
  1 30  1  0
  2 35  1  0
 21  3  1  6
  3 25  1  0
  4 25  2  0
  5 27  2  0
  6 18  1  0
  6 19  1  0
  6 25  1  0
  7 12  1  0
  7 26  1  0
  7 27  1  0
 17  8  1  6
  8 56  1  0
  8 57  1  0
  9 23  1  0
  9 34  2  0
 10 27  1  0
 10 29  1  0
 10 60  1  0
 11 29  1  0
 11 39  2  0
 12 14  1  0
 12 15  1  0
 12 40  1  0
 13 16  1  0
 13 17  1  0
 13 24  1  1
 13 41  1  6
 14 18  1  0
 14 42  1  0
 14 43  1  0
 15 19  1  0
 15 44  1  0
 15 45  1  0
 16 20  1  0
 16 46  1  0
 16 47  1  0
 17 22  1  0
 17 48  1  1
 18 49  1  0
 18 50  1  0
 19 51  1  0
 19 52  1  0
 20 21  1  0
 20 53  1  0
 20 54  1  0
 21 23  1  0
 21 55  1  1
 22 23  2  0
 22 28  1  0
 24 30  2  0
 24 31  1  0
 26 29  2  0
 26 32  1  0
 28 33  2  0
 28 58  1  0
 30 35  1  0
 31 36  2  0
 31 59  1  0
 32 37  2  0
 32 61  1  0
 33 34  1  0
 33 62  1  0
 34 63  1  0
 35 38  2  0
 36 38  1  0
 36 64  1  0
 37 39  1  0
 37 65  1  0
 38 66  1  0
 39 67  1  0
M  END
> <Name>
51049968

> <PUBCHEM_COMPOUND_CID>
51049968

> <Toxicity>
0

> <Data Set>
TrainingSet

$$$$
5073
  SciTegic12242523262D

 57 61  0  0  0  0            999 V2000
   14.5720   -0.1450    0.0000 F   0  0
   11.8030   -2.3660    0.0000 O   0  0
    4.6660   -0.6680    0.0000 O   0  0
    8.1300    0.3320    0.0000 N   0  0
    3.8000    0.8320    0.0000 N   0  0
   10.8310   -2.1570    0.0000 N   0  0
    4.6660    2.3320    0.0000 N   0  0
    9.8620   -0.6680    0.0000 C   0  0
    9.8620    0.3320    0.0000 C   0  0
    8.9960   -1.1680    0.0000 C   0  0
    8.9960    0.8320    0.0000 C   0  0
    8.1300   -0.6680    0.0000 C   0  0
    7.2640    0.8320    0.0000 C   0  0
   10.7280   -1.1680    0.0000 C   0  0
    6.3980    0.3320    0.0000 C   0  0
    5.5320    0.8320    0.0000 C   0  0
   11.6360   -0.7630    0.0000 C   0  0
    2.9060    0.2970    0.0000 C   0  0
    2.0000    0.8110    0.0000 C   0  0
    3.8000    1.8320    0.0000 C   0  0
    2.0000    1.8520    0.0000 C   0  0
    2.9060    2.3660    0.0000 C   0  0
    4.6660    0.3320    0.0000 C   0  0
    5.5320    1.8320    0.0000 C   0  0
   12.3040   -1.5080    0.0000 C   0  0
   11.9470    0.1870    0.0000 C   0  0
    6.3980    2.3320    0.0000 C   0  0
   13.2820   -1.3010    0.0000 C   0  0
   12.9250    0.3940    0.0000 C   0  0
   13.5930   -0.3510    0.0000 C   0  0
    9.8620   -1.2880    0.0000 H   0  0
   10.4730    0.2240    0.0000 H   0  0
   10.0740    0.9140    0.0000 H   0  0
    8.5980   -1.6430    0.0000 H   0  0
    9.3950   -1.6430    0.0000 H   0  0
    9.3950    1.3070    0.0000 H   0  0
    8.5980    1.3070    0.0000 H   0  0
    7.5200   -0.5610    0.0000 H   0  0
    7.9180   -1.2510    0.0000 H   0  0
    7.6630    1.3070    0.0000 H   0  0
    6.8660    1.3070    0.0000 H   0  0
    6.0000   -0.1430    0.0000 H   0  0
    6.7970   -0.1430    0.0000 H   0  0
    2.5120   -0.1820    0.0000 H   0  0
    3.3110   -0.1730    0.0000 H   0  0
    1.3890    0.9170    0.0000 H   0  0
    1.7910    0.2270    0.0000 H   0  0
    1.7910    2.4360    0.0000 H   0  0
    1.3890    1.7460    0.0000 H   0  0
    3.3110    2.8360    0.0000 H   0  0
    2.5120    2.8450    0.0000 H   0  0
   11.5330    0.6490    0.0000 H   0  0
    6.7080    1.7950    0.0000 H   0  0
    6.9350    2.6420    0.0000 H   0  0
    6.0880    2.8690    0.0000 H   0  0
   13.6960   -1.7630    0.0000 H   0  0
   13.1180    0.9830    0.0000 H   0  0
  1 30  1  0
  2  6  1  0
  2 25  1  0
  3 23  2  0
  4 11  1  0
  4 12  1  0
  4 13  1  0
  5 18  1  0
  5 20  1  0
  5 23  1  0
  6 14  2  0
  7 20  2  0
  7 24  1  0
  8  9  1  0
  8 10  1  0
  8 14  1  0
  8 31  1  0
  9 11  1  0
  9 32  1  0
  9 33  1  0
 10 12  1  0
 10 34  1  0
 10 35  1  0
 11 36  1  0
 11 37  1  0
 12 38  1  0
 12 39  1  0
 13 15  1  0
 13 40  1  0
 13 41  1  0
 14 17  1  0
 15 16  1  0
 15 42  1  0
 15 43  1  0
 16 23  1  0
 16 24  2  0
 17 25  2  0
 17 26  1  0
 18 19  1  0
 18 44  1  0
 18 45  1  0
 19 21  1  0
 19 46  1  0
 19 47  1  0
 20 22  1  0
 21 22  1  0
 21 48  1  0
 21 49  1  0
 22 50  1  0
 22 51  1  0
 24 27  1  0
 25 28  1  0
 26 29  2  0
 26 52  1  0
 27 53  1  0
 27 54  1  0
 27 55  1  0
 28 30  2  0
 28 56  1  0
 29 30  1  0
 29 57  1  0
M  END
> <Name>
5073

> <PUBCHEM_COMPOUND_CID>
5073

> <Toxicity>
0

> <Data Set>
TrainingSet

$$$$
118115473
  SciTegic12242523262D

 40 42  0  0  1  0            999 V2000
    3.7320   -0.3030    0.0000 O   0  0
    4.5980    1.1970    0.0000 N   0  0
    7.1960    0.6970    0.0000 N   0  0
    6.3300   -0.8030    0.0000 N   0  0
    9.0080   -2.1080    0.0000 N   0  0
    7.1960   -2.3030    0.0000 N   0  0
    6.3300    1.1970    0.0000 C   0  0  2  0  0  0
    4.5980    2.1970    0.0000 C   0  0  2  0  0  0
    6.3300    2.1970    0.0000 C   0  0
    5.4640    2.6970    0.0000 C   0  0
    5.4640    0.6970    0.0000 C   0  0
    3.7320    2.6970    0.0000 C   0  0
    3.7320    0.6970    0.0000 C   0  0
    7.1960   -0.3030    0.0000 C   0  0
    8.0620   -0.8030    0.0000 C   0  0
    2.8660    1.1970    0.0000 C   0  0
    8.0620   -1.8030    0.0000 C   0  0
    9.0080   -0.4980    0.0000 C   0  0
    9.5920   -1.3030    0.0000 C   0  0
    6.3300   -1.8030    0.0000 C   0  0
    2.0000    0.6970    0.0000 C   0  0
    6.8670    1.5070    0.0000 H   0  0
    4.0610    1.8870    0.0000 H   0  0
    6.9410    2.0890    0.0000 H   0  0
    6.5420    2.7800    0.0000 H   0  0
    5.8630    3.1720    0.0000 H   0  0
    5.0660    3.1720    0.0000 H   0  0
    5.0660    0.2220    0.0000 H   0  0
    5.8630    0.2220    0.0000 H   0  0
    7.7330    1.0070    0.0000 H   0  0
    4.0420    3.2340    0.0000 H   0  0
    3.1950    3.0070    0.0000 H   0  0
    3.4220    2.1600    0.0000 H   0  0
    2.8660    1.8170    0.0000 H   0  0
    9.2010    0.0910    0.0000 H   0  0
    9.2010   -2.6970    0.0000 H   0  0
   10.2120   -1.3030    0.0000 H   0  0
    5.7930   -2.1130    0.0000 H   0  0
    1.4630    1.0070    0.0000 H   0  0
    2.0000    0.0770    0.0000 H   0  0
  1 13  2  0
  2  8  1  0
  2 11  1  0
  2 13  1  0
  7  3  1  1
  3 14  1  0
  3 30  1  0
  4 14  1  0
  4 20  2  0
  5 17  1  0
  5 19  1  0
  5 36  1  0
  6 17  2  0
  6 20  1  0
  7  9  1  0
  7 11  1  0
  7 22  1  6
  8 10  1  0
  8 12  1  1
  8 23  1  6
  9 10  1  0
  9 24  1  0
  9 25  1  0
 10 26  1  0
 10 27  1  0
 11 28  1  0
 11 29  1  0
 12 31  1  0
 12 32  1  0
 12 33  1  0
 13 16  1  0
 14 15  2  0
 15 17  1  0
 15 18  1  0
 16 21  2  0
 16 34  1  0
 18 19  2  0
 18 35  1  0
 19 37  1  0
 20 38  1  0
 21 39  1  0
 21 40  1  0
M  END
> <Name>
118115473

> <PUBCHEM_COMPOUND_CID>
118115473

> <Toxicity>
1

> <Data Set>
TrainingSet

$$$$
392622
  SciTegic12242523262D

 98101  0  0  1  0            999 V2000
   12.6090    0.0480    0.0000 S   0  0
    8.9760   -1.3430    0.0000 S   0  0
    2.8660    0.2500    0.0000 O   0  0
    6.3300    0.2500    0.0000 O   0  0
    6.3300   -1.7500    0.0000 O   0  0
    5.4640   -0.2500    0.0000 O   0  0
    8.9280    2.7500    0.0000 O   0  0
    5.4640    1.7500    0.0000 N   0  0
    4.5980   -1.7500    0.0000 N   0  0
    8.0620    1.2500    0.0000 N   0  0
    9.7940    1.2500    0.0000 N   0  0
   12.4400    1.6570    0.0000 N   0  0
    9.1450   -2.9520    0.0000 N   0  0
    4.5980    1.2500    0.0000 C   0  0  2  0  0  0
    4.5980    0.2500    0.0000 C   0  0
    3.7320   -0.2500    0.0000 C   0  0  1  0  0  0
    3.7320   -1.2500    0.0000 C   0  0  2  0  0  0
    3.7320    1.7500    0.0000 C   0  0
    2.8660   -1.7500    0.0000 C   0  0
    7.1960    1.7500    0.0000 C   0  0  1  0  0  0
    7.1960    2.7500    0.0000 C   0  0
    6.3300    1.2500    0.0000 C   0  0
    3.7320    2.7500    0.0000 C   0  0
    2.8660   -2.7500    0.0000 C   0  0
    8.0620    3.2500    0.0000 C   0  0
    6.3300    3.2500    0.0000 C   0  0
    2.8660    3.2500    0.0000 C   0  0
    4.5980    3.2500    0.0000 C   0  0
    5.4640   -1.2500    0.0000 C   0  0
    3.7320   -3.2500    0.0000 C   0  0
    2.0000   -3.2500    0.0000 C   0  0
    8.9280    1.7500    0.0000 C   0  0
    2.8660    4.2500    0.0000 C   0  0
    4.5980    4.2500    0.0000 C   0  0
    3.7320   -4.2500    0.0000 C   0  0
    2.0000   -4.2500    0.0000 C   0  0
    3.7320    4.7500    0.0000 C   0  0
    2.8660   -4.7500    0.0000 C   0  0
   10.6600    1.7500    0.0000 C   0  0
    9.7940    0.2500    0.0000 C   0  0
    7.1960   -1.2500    0.0000 C   0  0
   11.5260    1.2500    0.0000 C   0  0
    8.0620   -1.7500    0.0000 C   0  0
   13.1090    0.9140    0.0000 C   0  0
   11.6310    0.2560    0.0000 C   0  0
   14.1040    1.0180    0.0000 C   0  0
   14.6910    0.2090    0.0000 C   0  0
   14.5100    1.9320    0.0000 C   0  0
    8.1670   -2.7440    0.0000 C   0  0
    9.6450   -2.0860    0.0000 C   0  0
    4.5980    1.8700    0.0000 H   0  0
    4.8100   -0.3330    0.0000 H   0  0
    5.2090    0.3580    0.0000 H   0  0
    3.7320    0.3700    0.0000 H   0  0
    3.7320   -1.8700    0.0000 H   0  0
    3.1220    1.8580    0.0000 H   0  0
    3.5200    1.1670    0.0000 H   0  0
    2.6540   -1.1670    0.0000 H   0  0
    2.2550   -1.8580    0.0000 H   0  0
    5.4640    2.3700    0.0000 H   0  0
    7.7330    2.0600    0.0000 H   0  0
    6.6590    2.4400    0.0000 H   0  0
    4.5980   -2.3700    0.0000 H   0  0
    2.8660    0.8700    0.0000 H   0  0
    8.0620    0.6300    0.0000 H   0  0
    8.3720    2.7130    0.0000 H   0  0
    8.5990    3.5600    0.0000 H   0  0
    7.7520    3.7870    0.0000 H   0  0
    6.6400    3.7870    0.0000 H   0  0
    5.7930    3.5600    0.0000 H   0  0
    6.0200    2.7130    0.0000 H   0  0
    2.3290    2.9400    0.0000 H   0  0
    5.1350    2.9400    0.0000 H   0  0
    4.2690   -2.9400    0.0000 H   0  0
    1.4630   -2.9400    0.0000 H   0  0
    2.3290    4.5600    0.0000 H   0  0
    5.1350    4.5600    0.0000 H   0  0
    4.2690   -4.5600    0.0000 H   0  0
    1.4630   -4.5600    0.0000 H   0  0
    3.7320    5.3700    0.0000 H   0  0
    2.8660   -5.3700    0.0000 H   0  0
   11.0590    2.2250    0.0000 H   0  0
   10.2620    2.2250    0.0000 H   0  0
    9.1740    0.2500    0.0000 H   0  0
    9.7940   -0.3700    0.0000 H   0  0
   10.4140    0.2500    0.0000 H   0  0
    7.5950   -0.7750    0.0000 H   0  0
    6.7980   -0.7750    0.0000 H   0  0
   14.7200    1.0830    0.0000 H   0  0
   11.1700   -0.1590    0.0000 H   0  0
   14.1900   -0.1550    0.0000 H   0  0
   15.0560   -0.2920    0.0000 H   0  0
   15.1930    0.5740    0.0000 H   0  0
   15.0770    1.6800    0.0000 H   0  0
   14.7620    2.4980    0.0000 H   0  0
   13.9440    2.1840    0.0000 H   0  0
    7.7060   -3.1590    0.0000 H   0  0
   10.2620   -2.0220    0.0000 H   0  0
  1 44  1  0
  1 45  1  0
  2 43  1  0
  2 50  1  0
 16  3  1  1
  3 64  1  0
  4 22  2  0
  5 29  1  0
  5 41  1  0
  6 29  2  0
  7 32  2  0
 14  8  1  6
  8 22  1  0
  8 60  1  0
  9 17  1  0
  9 29  1  0
  9 63  1  0
 20 10  1  6
 10 32  1  0
 10 65  1  0
 11 32  1  0
 11 39  1  0
 11 40  1  0
 12 42  1  0
 12 44  2  0
 13 49  1  0
 13 50  2  0
 14 15  1  0
 14 18  1  0
 14 51  1  1
 15 16  1  0
 15 52  1  0
 15 53  1  0
 16 17  1  0
 16 54  1  6
 17 19  1  1
 17 55  1  6
 18 23  1  0
 18 56  1  0
 18 57  1  0
 19 24  1  0
 19 58  1  0
 19 59  1  0
 20 21  1  0
 20 22  1  0
 20 61  1  1
 21 25  1  0
 21 26  1  0
 21 62  1  0
 23 27  2  0
 23 28  1  0
 24 30  2  0
 24 31  1  0
 25 66  1  0
 25 67  1  0
 25 68  1  0
 26 69  1  0
 26 70  1  0
 26 71  1  0
 27 33  1  0
 27 72  1  0
 28 34  2  0
 28 73  1  0
 30 35  1  0
 30 74  1  0
 31 36  2  0
 31 75  1  0
 33 37  2  0
 33 76  1  0
 34 37  1  0
 34 77  1  0
 35 38  2  0
 35 78  1  0
 36 38  1  0
 36 79  1  0
 37 80  1  0
 38 81  1  0
 39 42  1  0
 39 82  1  0
 39 83  1  0
 40 84  1  0
 40 85  1  0
 40 86  1  0
 41 43  1  0
 41 87  1  0
 41 88  1  0
 42 45  2  0
 43 49  2  0
 44 46  1  0
 45 90  1  0
 46 47  1  0
 46 48  1  0
 46 89  1  0
 47 91  1  0
 47 92  1  0
 47 93  1  0
 48 94  1  0
 48 95  1  0
 48 96  1  0
 49 97  1  0
 50 98  1  0
M  END
> <Name>
392622

> <PUBCHEM_COMPOUND_CID>
392622

> <Toxicity>
0

> <Data Set>
TrainingSet

$$$$
5095
  SciTegic12242523262D

 43 44  0  0  0  0            999 V2000
    7.9940   -2.0530    0.0000 O   0  0
    3.7320    1.4470    0.0000 N   0  0
    6.4100   -2.8580    0.0000 N   0  0
    3.7320    0.4470    0.0000 C   0  0
    4.5980   -0.0530    0.0000 C   0  0
    4.5980   -1.0530    0.0000 C   0  0
    2.8660    1.9470    0.0000 C   0  0
    4.5980    1.9470    0.0000 C   0  0
    5.4640   -1.5530    0.0000 C   0  0
    6.4100   -1.2480    0.0000 C   0  0
    5.4640   -2.5530    0.0000 C   0  0
    2.8660    2.9470    0.0000 C   0  0
    4.5980    2.9470    0.0000 C   0  0
    3.7320   -1.5530    0.0000 C   0  0
    6.9940   -2.0530    0.0000 C   0  0
    4.5980   -3.0530    0.0000 C   0  0
    3.7320   -2.5530    0.0000 C   0  0
    2.0000    3.4470    0.0000 C   0  0
    5.4640    3.4470    0.0000 C   0  0
    3.1220    0.5550    0.0000 H   0  0
    3.5200   -0.1360    0.0000 H   0  0
    5.2090   -0.1610    0.0000 H   0  0
    4.8100    0.5300    0.0000 H   0  0
    2.2550    2.0550    0.0000 H   0  0
    2.6540    1.3640    0.0000 H   0  0
    4.8100    1.3640    0.0000 H   0  0
    5.2090    2.0550    0.0000 H   0  0
    6.9480   -0.9390    0.0000 H   0  0
    6.1590   -0.6810    0.0000 H   0  0
    3.4770    2.8390    0.0000 H   0  0
    3.0780    3.5300    0.0000 H   0  0
    4.3860    3.5300    0.0000 H   0  0
    3.9880    2.8390    0.0000 H   0  0
    3.1950   -1.2430    0.0000 H   0  0
    6.6030   -3.4470    0.0000 H   0  0
    4.5980   -3.6730    0.0000 H   0  0
    3.1950   -2.8630    0.0000 H   0  0
    2.3100    3.9840    0.0000 H   0  0
    1.4630    3.7570    0.0000 H   0  0
    1.6900    2.9100    0.0000 H   0  0
    5.7740    2.9100    0.0000 H   0  0
    6.0010    3.7570    0.0000 H   0  0
    5.1540    3.9840    0.0000 H   0  0
  1 15  2  0
  2  4  1  0
  2  7  1  0
  2  8  1  0
  3 11  1  0
  3 15  1  0
  3 35  1  0
  4  5  1  0
  4 20  1  0
  4 21  1  0
  5  6  1  0
  5 22  1  0
  5 23  1  0
  6  9  2  0
  6 14  1  0
  7 12  1  0
  7 24  1  0
  7 25  1  0
  8 13  1  0
  8 26  1  0
  8 27  1  0
  9 10  1  0
  9 11  1  0
 10 15  1  0
 10 28  1  0
 10 29  1  0
 11 16  2  0
 12 18  1  0
 12 30  1  0
 12 31  1  0
 13 19  1  0
 13 32  1  0
 13 33  1  0
 14 17  2  0
 14 34  1  0
 16 17  1  0
 16 36  1  0
 17 37  1  0
 18 38  1  0
 18 39  1  0
 18 40  1  0
 19 41  1  0
 19 42  1  0
 19 43  1  0
M  END
> <Name>
5095

> <PUBCHEM_COMPOUND_CID>
5095

> <Toxicity>
1

> <Data Set>
TrainingSet

$$$$
175805
  SciTegic12242523262D

 46 47  0  0  1  0            999 V2000
    5.4640   -0.2500    0.0000 O   0  0
    5.4640    1.7500    0.0000 N   0  0
    3.7320   -0.2500    0.0000 N   0  0
    4.5980    1.2500    0.0000 C   0  0  1  0  0  0
    3.7320    1.7500    0.0000 C   0  0
    5.4640    2.7500    0.0000 C   0  0
    3.7320    2.7500    0.0000 C   0  0
    4.5980    3.2500    0.0000 C   0  0
    6.3300    1.2500    0.0000 C   0  0
    4.5980    0.2500    0.0000 C   0  0
    7.1960    1.7500    0.0000 C   0  0
    8.0620    1.2500    0.0000 C   0  0
    3.7320   -1.2500    0.0000 C   0  0
    2.8660   -1.7500    0.0000 C   0  0
    4.5980   -1.7500    0.0000 C   0  0
    2.8660   -2.7500    0.0000 C   0  0
    4.5980   -2.7500    0.0000 C   0  0
    2.0000   -1.2500    0.0000 C   0  0
    5.4640   -1.2500    0.0000 C   0  0
    3.7320   -3.2500    0.0000 C   0  0
    5.1350    0.9400    0.0000 H   0  0
    3.1220    1.8580    0.0000 H   0  0
    3.5200    1.1670    0.0000 H   0  0
    6.0750    2.6420    0.0000 H   0  0
    5.6760    3.3330    0.0000 H   0  0
    3.5200    3.3330    0.0000 H   0  0
    3.1220    2.6420    0.0000 H   0  0
    4.9970    3.7250    0.0000 H   0  0
    4.2000    3.7250    0.0000 H   0  0
    5.9320    0.7750    0.0000 H   0  0
    6.7290    0.7750    0.0000 H   0  0
    7.5950    2.2250    0.0000 H   0  0
    6.7980    2.2250    0.0000 H   0  0
    3.1950    0.0600    0.0000 H   0  0
    7.7520    0.7130    0.0000 H   0  0
    8.5990    0.9400    0.0000 H   0  0
    8.3720    1.7870    0.0000 H   0  0
    2.3290   -3.0600    0.0000 H   0  0
    5.1350   -3.0600    0.0000 H   0  0
    2.3100   -0.7130    0.0000 H   0  0
    1.4630   -0.9400    0.0000 H   0  0
    1.6900   -1.7870    0.0000 H   0  0
    5.7740   -1.7870    0.0000 H   0  0
    6.0010   -0.9400    0.0000 H   0  0
    5.1540   -0.7130    0.0000 H   0  0
    3.7320   -3.8700    0.0000 H   0  0
  1 10  2  0
  2  4  1  0
  2  6  1  0
  2  9  1  0
  3 10  1  0
  3 13  1  0
  3 34  1  0
  4  5  1  0
  4 10  1  6
  4 21  1  1
  5  7  1  0
  5 22  1  0
  5 23  1  0
  6  8  1  0
  6 24  1  0
  6 25  1  0
  7  8  1  0
  7 26  1  0
  7 27  1  0
  8 28  1  0
  8 29  1  0
  9 11  1  0
  9 30  1  0
  9 31  1  0
 11 12  1  0
 11 32  1  0
 11 33  1  0
 12 35  1  0
 12 36  1  0
 12 37  1  0
 13 14  2  0
 13 15  1  0
 14 16  1  0
 14 18  1  0
 15 17  2  0
 15 19  1  0
 16 20  2  0
 16 38  1  0
 17 20  1  0
 17 39  1  0
 18 40  1  0
 18 41  1  0
 18 42  1  0
 19 43  1  0
 19 44  1  0
 19 45  1  0
 20 46  1  0
M  END
> <Name>
175805

> <PUBCHEM_COMPOUND_CID>
175805

> <Toxicity>
0

> <Data Set>
TrainingSet

$$$$
59227
  SciTegic12242523262D

 47 49  0  0  1  0            999 V2000
    2.6690    0.3320    0.0000 S   0  0
    9.6610   -2.6090    0.0000 O   0  0
    6.1810    0.4250    0.0000 N   0  0
    7.0470   -0.0750    0.0000 C   0  0  1  0  0  0
    7.0470   -1.0750    0.0000 C   0  0
    7.9130    0.4250    0.0000 C   0  0
    7.9130   -1.5750    0.0000 C   0  0
    8.7790   -0.0750    0.0000 C   0  0
    8.7790   -1.0750    0.0000 C   0  0
    5.3150   -0.0750    0.0000 C   0  0
    6.1810    1.4250    0.0000 C   0  0
    4.4490    0.4250    0.0000 C   0  0
    5.3150    1.9250    0.0000 C   0  0
    9.6730    0.4600    0.0000 C   0  0
    9.6730   -1.6090    0.0000 C   0  0
   10.5790   -0.0540    0.0000 C   0  0
   10.5790   -1.0950    0.0000 C   0  0
    3.5830   -0.0750    0.0000 C   0  0
    5.3150    2.9250    0.0000 C   0  0
    3.4780   -1.0690    0.0000 C   0  0
    2.5000   -1.2770    0.0000 C   0  0
    2.0000   -0.4110    0.0000 C   0  0
    7.0470    0.5450    0.0000 H   0  0
    6.4360   -0.9670    0.0000 H   0  0
    6.8350   -1.6570    0.0000 H   0  0
    8.3110    0.9000    0.0000 H   0  0
    7.5140    0.9000    0.0000 H   0  0
    7.5140   -2.0500    0.0000 H   0  0
    8.3110   -2.0500    0.0000 H   0  0
    4.9160   -0.5500    0.0000 H   0  0
    5.7130   -0.5500    0.0000 H   0  0
    6.7910    1.3180    0.0000 H   0  0
    6.3930    2.0080    0.0000 H   0  0
    4.8470    0.9000    0.0000 H   0  0
    4.0500    0.9000    0.0000 H   0  0
    4.7040    2.0330    0.0000 H   0  0
    5.1030    1.3430    0.0000 H   0  0
    9.6660    1.0800    0.0000 H   0  0
   11.1150    0.2580    0.0000 H   0  0
   11.1150   -1.4080    0.0000 H   0  0
    5.9350    2.9250    0.0000 H   0  0
    5.3150    3.5450    0.0000 H   0  0
    4.6950    2.9250    0.0000 H   0  0
   10.1940   -2.9250    0.0000 H   0  0
    3.9390   -1.4840    0.0000 H   0  0
    2.2480   -1.8430    0.0000 H   0  0
    1.3830   -0.3460    0.0000 H   0  0
  1 18  1  0
  1 22  1  0
  2 15  1  0
  2 44  1  0
  4  3  1  6
  3 10  1  0
  3 11  1  0
  4  5  1  0
  4  6  1  0
  4 23  1  1
  5  7  1  0
  5 24  1  0
  5 25  1  0
  6  8  1  0
  6 26  1  0
  6 27  1  0
  7  9  1  0
  7 28  1  0
  7 29  1  0
  8  9  2  0
  8 14  1  0
  9 15  1  0
 10 12  1  0
 10 30  1  0
 10 31  1  0
 11 13  1  0
 11 32  1  0
 11 33  1  0
 12 18  1  0
 12 34  1  0
 12 35  1  0
 13 19  1  0
 13 36  1  0
 13 37  1  0
 14 16  2  0
 14 38  1  0
 15 17  2  0
 16 17  1  0
 16 39  1  0
 17 40  1  0
 18 20  2  0
 19 41  1  0
 19 42  1  0
 19 43  1  0
 20 21  1  0
 20 45  1  0
 21 22  2  0
 21 46  1  0
 22 47  1  0
M  END
> <Name>
59227

> <PUBCHEM_COMPOUND_CID>
59227

> <Toxicity>
1

> <Data Set>
TrainingSet

$$$$
25126798
  SciTegic12242523262D

 41 44  0  0  1  0            999 V2000
    3.3660    0.8010    0.0000 N   0  0
    2.3660    0.8010    0.0000 N   0  0
    2.0000   -2.2380    0.0000 N   0  0
    6.1240    3.1230    0.0000 N   0  0
    4.6780   -3.5430    0.0000 N   0  0
    2.8660   -3.7380    0.0000 N   0  0
    3.5470    2.5230    0.0000 C   0  0
    4.0470    3.3890    0.0000 C   0  0
    2.5690    2.7310    0.0000 C   0  0
    3.9540    1.6100    0.0000 C   0  0  1  0  0  0
    3.3780    4.1320    0.0000 C   0  0
    2.4640    3.7260    0.0000 C   0  0
    4.9480    1.5050    0.0000 C   0  0
    3.6750   -0.1500    0.0000 C   0  0
    2.8660   -0.7380    0.0000 C   0  0
    5.5360    2.3140    0.0000 C   0  0
    2.0570   -0.1500    0.0000 C   0  0
    2.8660   -1.7380    0.0000 C   0  0
    3.7320   -2.2380    0.0000 C   0  0
    3.7320   -3.2380    0.0000 C   0  0
    4.6780   -1.9340    0.0000 C   0  0
    5.2620   -2.7380    0.0000 C   0  0
    2.0000   -3.2380    0.0000 C   0  0
    4.1660    2.4910    0.0000 H   0  0
    4.5490    3.0250    0.0000 H   0  0
    4.4620    3.8500    0.0000 H   0  0
    1.9490    2.7310    0.0000 H   0  0
    2.5040    2.1140    0.0000 H   0  0
    4.2060    1.0430    0.0000 H   0  0
    3.8800    4.4970    0.0000 H   0  0
    3.0680    4.6690    0.0000 H   0  0
    2.2730    4.3150    0.0000 H   0  0
    1.8580    3.5970    0.0000 H   0  0
    4.7770    0.9090    0.0000 H   0  0
    5.5060    1.2330    0.0000 H   0  0
    4.2650   -0.3420    0.0000 H   0  0
    1.4670   -0.3420    0.0000 H   0  0
    4.8710   -1.3440    0.0000 H   0  0
    4.8710   -4.1320    0.0000 H   0  0
    5.8820   -2.7380    0.0000 H   0  0
    1.4630   -3.5480    0.0000 H   0  0
  1  2  1  0
 10  1  1  1
  1 14  1  0
  2 17  2  0
  3 18  1  0
  3 23  2  0
  4 16  3  0
  5 20  1  0
  5 22  1  0
  5 39  1  0
  6 20  2  0
  6 23  1  0
  7  8  1  0
  7  9  1  0
  7 10  1  0
  7 24  1  0
  8 11  1  0
  8 25  1  0
  8 26  1  0
  9 12  1  0
  9 27  1  0
  9 28  1  0
 10 13  1  0
 10 29  1  6
 11 12  1  0
 11 30  1  0
 11 31  1  0
 12 32  1  0
 12 33  1  0
 13 16  1  0
 13 34  1  0
 13 35  1  0
 14 15  2  0
 14 36  1  0
 15 17  1  0
 15 18  1  0
 17 37  1  0
 18 19  2  0
 19 20  1  0
 19 21  1  0
 21 22  2  0
 21 38  1  0
 22 40  1  0
 23 41  1  0
M  END
> <Name>
25126798

> <PUBCHEM_COMPOUND_CID>
25126798

> <Toxicity>
1

> <Data Set>
TrainingSet

$$$$
5152
  SciTegic12242523262D

 67 68  0  0  1  0            999 V2000
    9.4650    2.4050    0.0000 O   0  0
    4.2690   -3.5950    0.0000 O   0  0
    5.1350   -8.0950    0.0000 O   0  0
    2.5370   -6.5950    0.0000 O   0  0
    6.0010   -2.5950    0.0000 N   0  0
    7.7330   -0.5950    0.0000 C   0  0
    7.7330    0.4050    0.0000 C   0  0
    6.8670   -1.0950    0.0000 C   0  0
    8.5990    0.9050    0.0000 C   0  0
    6.8670   -2.0950    0.0000 C   0  0
    6.0010   -3.5950    0.0000 C   0  0
    8.5990    1.9050    0.0000 C   0  0
    5.1350   -4.0950    0.0000 C   0  0
   10.3310    3.9050    0.0000 C   0  0
   10.3310    4.9050    0.0000 C   0  0
    9.4650    3.4050    0.0000 C   0  0
    5.1350   -5.0950    0.0000 C   0  0
   11.1970    5.4050    0.0000 C   0  0
    4.2690   -5.5950    0.0000 C   0  0
   11.1970    6.4050    0.0000 C   0  0
    6.0010   -5.5950    0.0000 C   0  0
    4.2690   -6.5950    0.0000 C   0  0
    6.0010   -6.5950    0.0000 C   0  0
    5.1350   -7.0950    0.0000 C   0  0
   10.3310    6.9050    0.0000 C   0  0
   12.0630    6.9050    0.0000 C   0  0
    3.4030   -7.0950    0.0000 C   0  0
   10.3310    7.9050    0.0000 C   0  0
   12.0630    7.9050    0.0000 C   0  0
   11.1970    8.4050    0.0000 C   0  0
    7.9450   -1.1780    0.0000 H   0  0
    8.3440   -0.4870    0.0000 H   0  0
    7.5210    0.9880    0.0000 H   0  0
    7.1220    0.2970    0.0000 H   0  0
    6.6550   -0.5120    0.0000 H   0  0
    6.2560   -1.2030    0.0000 H   0  0
    8.8110    0.3220    0.0000 H   0  0
    9.2100    1.0130    0.0000 H   0  0
    7.0790   -2.6780    0.0000 H   0  0
    7.4780   -1.9870    0.0000 H   0  0
    6.2130   -4.1780    0.0000 H   0  0
    6.6120   -3.4870    0.0000 H   0  0
    8.3870    2.4880    0.0000 H   0  0
    7.9880    1.7970    0.0000 H   0  0
    5.4640   -2.2850    0.0000 H   0  0
    5.1350   -3.2450    0.0000 H   0  0
   10.5430    3.3220    0.0000 H   0  0
   10.9420    4.0130    0.0000 H   0  0
   10.1190    5.4880    0.0000 H   0  0
    9.7210    4.7970    0.0000 H   0  0
    9.2530    3.9880    0.0000 H   0  0
    8.8550    3.2970    0.0000 H   0  0
   11.4090    4.8220    0.0000 H   0  0
   11.8080    5.5130    0.0000 H   0  0
    3.7320   -5.2850    0.0000 H   0  0
    6.5380   -5.2850    0.0000 H   0  0
    4.2690   -2.9750    0.0000 H   0  0
    6.5380   -6.9050    0.0000 H   0  0
    9.7940    6.5950    0.0000 H   0  0
   12.6000    6.5950    0.0000 H   0  0
    3.0040   -7.5700    0.0000 H   0  0
    3.8020   -7.5700    0.0000 H   0  0
    9.7940    8.2150    0.0000 H   0  0
   12.6000    8.2150    0.0000 H   0  0
   11.1970    9.0250    0.0000 H   0  0
    5.6720   -8.4050    0.0000 H   0  0
    2.0000   -6.9050    0.0000 H   0  0
  1 12  1  0
  1 16  1  0
  2 13  1  0
  2 57  1  0
  3 24  1  0
  3 66  1  0
  4 27  1  0
  4 67  1  0
  5 10  1  0
  5 11  1  0
  5 45  1  0
  6  7  1  0
  6  8  1  0
  6 31  1  0
  6 32  1  0
  7  9  1  0
  7 33  1  0
  7 34  1  0
  8 10  1  0
  8 35  1  0
  8 36  1  0
  9 12  1  0
  9 37  1  0
  9 38  1  0
 10 39  1  0
 10 40  1  0
 11 13  1  0
 11 41  1  0
 11 42  1  0
 12 43  1  0
 12 44  1  0
 13 17  1  0
 13 46  1  0
 14 15  1  0
 14 16  1  0
 14 47  1  0
 14 48  1  0
 15 18  1  0
 15 49  1  0
 15 50  1  0
 16 51  1  0
 16 52  1  0
 17 19  2  0
 17 21  1  0
 18 20  1  0
 18 53  1  0
 18 54  1  0
 19 22  1  0
 19 55  1  0
 20 25  2  0
 20 26  1  0
 21 23  2  0
 21 56  1  0
 22 24  2  0
 22 27  1  0
 23 24  1  0
 23 58  1  0
 25 28  1  0
 25 59  1  0
 26 29  2  0
 26 60  1  0
 27 61  1  0
 27 62  1  0
 28 30  2  0
 28 63  1  0
 29 30  1  0
 29 64  1  0
 30 65  1  0
M  END
> <Name>
5152

> <PUBCHEM_COMPOUND_CID>
5152

> <Toxicity>
0

> <Data Set>
TestSet

$$$$
5161
  SciTegic12242523262D

 29 30  0  0  0  0            999 V2000
    5.4640   -0.0600    0.0000 O   0  0
    4.5980    1.4400    0.0000 O   0  0
    4.5980   -1.5600    0.0000 O   0  0
    8.0620    1.4400    0.0000 O   0  0
    6.3300    1.4400    0.0000 O   0  0
    6.3300   -0.5600    0.0000 C   0  0
    3.7320   -0.0600    0.0000 C   0  0
    7.1960   -0.0600    0.0000 C   0  0
    3.7320    0.9400    0.0000 C   0  0
    6.3300   -1.5600    0.0000 C   0  0
    4.5980   -0.5600    0.0000 C   0  0
    8.0620   -0.5600    0.0000 C   0  0
    2.8660   -0.5600    0.0000 C   0  0
    7.1960   -2.0600    0.0000 C   0  0
    8.0620   -1.5600    0.0000 C   0  0
    2.8660    1.4400    0.0000 C   0  0
    2.0000   -0.0600    0.0000 C   0  0
    2.0000    0.9400    0.0000 C   0  0
    7.1960    0.9400    0.0000 C   0  0
    5.7930   -1.8700    0.0000 H   0  0
    8.5990   -0.2500    0.0000 H   0  0
    2.8660   -1.1800    0.0000 H   0  0
    7.1960   -2.6800    0.0000 H   0  0
    8.5990   -1.8700    0.0000 H   0  0
    2.8660    2.0600    0.0000 H   0  0
    1.4630   -0.3700    0.0000 H   0  0
    1.4630    1.2500    0.0000 H   0  0
    4.5980    2.0600    0.0000 H   0  0
    8.0620    2.0600    0.0000 H   0  0
  1  6  1  0
  1 11  1  0
  2  9  1  0
  2 28  1  0
  3 11  2  0
  4 19  1  0
  4 29  1  0
  5 19  2  0
  6  8  2  0
  6 10  1  0
  7  9  2  0
  7 11  1  0
  7 13  1  0
  8 12  1  0
  8 19  1  0
  9 16  1  0
 10 14  2  0
 10 20  1  0
 12 15  2  0
 12 21  1  0
 13 17  2  0
 13 22  1  0
 14 15  1  0
 14 23  1  0
 15 24  1  0
 16 18  2  0
 16 25  1  0
 17 18  1  0
 17 26  1  0
 18 27  1  0
M  END
> <Name>
5161

> <PUBCHEM_COMPOUND_CID>
5161

> <Toxicity>
1

> <Data Set>
TrainingSet

$$$$
54681908
  SciTegic12242523262D

 64 67  0  0  1  0            999 V2000
    6.0680    2.3520    0.0000 O   0  0
    6.9340    2.8520    0.0000 O   0  0
    4.8430    2.8300    0.0000 O   0  0
    8.6820    2.8860    0.0000 O   0  0
    3.4040   -0.1720    0.0000 O   0  0
   10.5190    2.9300    0.0000 O   0  0
    3.4080    2.8760    0.0000 O   0  0
   11.3680   -2.7360    0.0000 O   0  0
    5.1850   -1.1830    0.0000 N   0  0
    2.5360    1.3790    0.0000 N   0  0
   11.3800   -1.7360    0.0000 N   0  0
    6.0680    0.3520    0.0000 C   0  0  1  0  0  0
    6.0680    1.3520    0.0000 C   0  0  1  0  0  0
    6.9340   -0.1480    0.0000 C   0  0
    7.8000    0.3520    0.0000 C   0  0  1  0  0  0
    5.1740   -0.1830    0.0000 C   0  0  1  0  0  0
    7.8000    1.3520    0.0000 C   0  0
    6.9340    1.8520    0.0000 C   0  0
    8.6940   -0.1830    0.0000 C   0  0
    5.1740    1.8860    0.0000 C   0  0
    4.2680    0.3310    0.0000 C   0  0
    9.6000    0.3310    0.0000 C   0  0
    8.6940    1.8860    0.0000 C   0  0
    4.2680    1.3730    0.0000 C   0  0
    9.6000    1.3730    0.0000 C   0  0
   10.5310   -0.2260    0.0000 C   0  0
    4.3250   -1.6930    0.0000 C   0  0
    6.0570   -1.6730    0.0000 C   0  0
   10.5310    1.9300    0.0000 C   0  0
    3.4040    1.8760    0.0000 C   0  0
   11.4750    0.3090    0.0000 C   0  0
   10.5190   -1.2260    0.0000 C   0  0
   11.4750    1.3940    0.0000 C   0  0
   12.2510   -1.2460    0.0000 C   0  0
   12.2280   -3.2460    0.0000 C   0  0
    6.0740   -0.4980    0.0000 H   0  0
    6.5350   -0.6230    0.0000 H   0  0
    7.3320   -0.6230    0.0000 H   0  0
    7.7930   -0.4980    0.0000 H   0  0
    5.7150   -0.4860    0.0000 H   0  0
    8.2890   -0.6530    0.0000 H   0  0
    9.0870   -0.6620    0.0000 H   0  0
    5.6690    2.8270    0.0000 H   0  0
    4.0090   -1.1590    0.0000 H   0  0
    3.7920   -2.0090    0.0000 H   0  0
    4.6410   -2.2260    0.0000 H   0  0
    5.7530   -2.2130    0.0000 H   0  0
    6.5980   -1.9760    0.0000 H   0  0
    6.3610   -1.1320    0.0000 H   0  0
    4.2330    2.9450    0.0000 H   0  0
   12.0100   -0.0030    0.0000 H   0  0
    9.9100   -1.1110    0.0000 H   0  0
   10.3010   -1.8060    0.0000 H   0  0
    9.2160    3.2030    0.0000 H   0  0
   12.0100    1.7060    0.0000 H   0  0
    2.0000    1.6910    0.0000 H   0  0
    2.5330    0.7590    0.0000 H   0  0
   11.0530    3.2460    0.0000 H   0  0
   12.5550   -1.7860    0.0000 H   0  0
   12.7920   -0.9420    0.0000 H   0  0
   11.9480   -0.7050    0.0000 H   0  0
   11.9120   -3.7790    0.0000 H   0  0
   12.7620   -3.5620    0.0000 H   0  0
   12.5440   -2.7120    0.0000 H   0  0
 13  1  1  6
  1 43  1  0
  2 18  2  0
  3 20  1  0
  3 50  1  0
  4 23  1  0
  4 54  1  0
  5 21  2  0
  6 29  1  0
  6 58  1  0
  7 30  2  0
  8 11  1  0
  8 35  1  0
 16  9  1  6
  9 27  1  0
  9 28  1  0
 10 30  1  0
 10 56  1  0
 10 57  1  0
 11 32  1  0
 11 34  1  0
 12 13  1  0
 12 14  1  0
 12 16  1  0
 12 36  1  6
 13 18  1  0
 13 20  1  0
 14 15  1  0
 14 37  1  0
 14 38  1  0
 15 17  1  0
 15 19  1  0
 15 39  1  6
 16 21  1  0
 16 40  1  1
 17 18  1  0
 17 23  2  0
 19 22  1  0
 19 41  1  0
 19 42  1  0
 20 24  2  0
 21 24  1  0
 22 25  2  0
 22 26  1  0
 23 25  1  0
 24 30  1  0
 25 29  1  0
 26 31  2  0
 26 32  1  0
 27 44  1  0
 27 45  1  0
 27 46  1  0
 28 47  1  0
 28 48  1  0
 28 49  1  0
 29 33  2  0
 31 33  1  0
 31 51  1  0
 32 52  1  0
 32 53  1  0
 33 55  1  0
 34 59  1  0
 34 60  1  0
 34 61  1  0
 35 62  1  0
 35 63  1  0
 35 64  1  0
M  END
> <Name>
54681908

> <PUBCHEM_COMPOUND_CID>
54681908

> <Toxicity>
1

> <Data Set>
TrainingSet

$$$$
71815
  SciTegic12242523262D

 24 24  0  0  1  0            999 V2000
    5.3690   -1.8640    0.0000 O   0  0
    2.0000    1.5840    0.0000 O   0  5
    2.5350   -0.0640    0.0000 O   0  0
    4.5030    0.6360    0.0000 N   0  0
    5.0030    2.1740    0.0000 N   0  0
    2.7430    0.9140    0.0000 N   0  3
    4.5030   -0.3640    0.0000 C   0  0
    5.3690   -0.8640    0.0000 C   0  0
    5.3120    1.2230    0.0000 C   0  0
    3.6940    1.2230    0.0000 C   0  0
    6.2350   -0.3640    0.0000 C   0  0
    4.0030    2.1740    0.0000 C   0  0
    6.2630    0.9140    0.0000 C   0  0
    3.8930   -0.2570    0.0000 H   0  0
    4.2910   -0.9470    0.0000 H   0  0
    5.9060   -1.1740    0.0000 H   0  0
    6.5450   -0.9010    0.0000 H   0  0
    6.7720   -0.0540    0.0000 H   0  0
    5.9250    0.1720    0.0000 H   0  0
    3.6390    2.6760    0.0000 H   0  0
    6.0720    0.3250    0.0000 H   0  0
    6.8530    0.7230    0.0000 H   0  0
    6.4550    1.5040    0.0000 H   0  0
    5.9060   -2.1740    0.0000 H   0  0
  1  8  1  0
  1 24  1  0
  2  6  1  0
  3  6  2  0
  4  7  1  0
  4  9  1  0
  4 10  1  0
  5  9  2  0
  5 12  1  0
  6 10  1  0
  7  8  1  0
  7 14  1  0
  7 15  1  0
  8 11  1  0
  8 16  1  0
  9 13  1  0
 10 12  2  0
 11 17  1  0
 11 18  1  0
 11 19  1  0
 12 20  1  0
 13 21  1  0
 13 22  1  0
 13 23  1  0
M  CHG  2   2  -1   6   1
M  END
> <Name>
71815

> <PUBCHEM_COMPOUND_CID>
71815

> <Toxicity>
1

> <Data Set>
TrainingSet

$$$$
26757
  SciTegic12242523262D

 31 31  0  0  1  0            999 V2000
    3.7320    0.6900    0.0000 N   0  0
    3.7320   -0.3100    0.0000 C   0  0  1  0  0  0
    2.8660   -0.8100    0.0000 C   0  0
    4.5980   -0.8100    0.0000 C   0  0
    2.8660   -1.8100    0.0000 C   0  0
    4.5980    1.1900    0.0000 C   0  0
    2.8660    1.1900    0.0000 C   0  0
    2.0000   -2.3100    0.0000 C   0  0
    3.7320   -2.3100    0.0000 C   0  0
    2.0000   -3.3100    0.0000 C   0  0
    3.7320   -3.3100    0.0000 C   0  0
    2.8660   -3.8100    0.0000 C   0  0
    4.5980    2.1900    0.0000 C   0  0
    4.5980    3.1900    0.0000 C   0  0
    4.2690    0.0000    0.0000 H   0  0
    2.6540   -0.2270    0.0000 H   0  0
    2.2550   -0.9180    0.0000 H   0  0
    4.2880   -1.3470    0.0000 H   0  0
    5.1350   -1.1200    0.0000 H   0  0
    4.9080   -0.2730    0.0000 H   0  0
    4.8100    0.6070    0.0000 H   0  0
    5.2090    1.2980    0.0000 H   0  0
    3.1760    1.7270    0.0000 H   0  0
    2.3290    1.5000    0.0000 H   0  0
    2.5560    0.6530    0.0000 H   0  0
    1.4630   -2.0000    0.0000 H   0  0
    4.2690   -2.0000    0.0000 H   0  0
    1.4630   -3.6200    0.0000 H   0  0
    4.2690   -3.6200    0.0000 H   0  0
    2.8660   -4.4300    0.0000 H   0  0
    4.5980    3.8100    0.0000 H   0  0
  1  2  1  0
  1  6  1  0
  1  7  1  0
  2  3  1  0
  2  4  1  6
  2 15  1  1
  3  5  1  0
  3 16  1  0
  3 17  1  0
  4 18  1  0
  4 19  1  0
  4 20  1  0
  5  8  2  0
  5  9  1  0
  6 13  1  0
  6 21  1  0
  6 22  1  0
  7 23  1  0
  7 24  1  0
  7 25  1  0
  8 10  1  0
  8 26  1  0
  9 11  2  0
  9 27  1  0
 10 12  2  0
 10 28  1  0
 11 12  1  0
 11 29  1  0
 12 30  1  0
 13 14  3  0
 14 31  1  0
M  END
> <Name>
26757

> <PUBCHEM_COMPOUND_CID>
26757

> <Toxicity>
1

> <Data Set>
TrainingSet

$$$$
68617
  SciTegic12242523262D

 37 39  0  0  1  0            999 V2000
    2.0000   -2.7500    0.0000 Cl  0  0
    3.7320   -3.7500    0.0000 Cl  0  0
    3.7320    3.2500    0.0000 N   0  0
    3.7320    0.2500    0.0000 C   0  0  2  0  0  0
    2.8660    0.7500    0.0000 C   0  0
    3.7320    2.2500    0.0000 C   0  0  1  0  0  0
    2.8660    1.7500    0.0000 C   0  0
    4.5980    0.7500    0.0000 C   0  0
    4.5980    1.7500    0.0000 C   0  0
    3.7320   -0.7500    0.0000 C   0  0
    5.4920    0.2150    0.0000 C   0  0
    5.4920    2.2850    0.0000 C   0  0
    2.8660   -1.2500    0.0000 C   0  0
    4.5980   -1.2500    0.0000 C   0  0
    6.3980    0.7290    0.0000 C   0  0
    6.3980    1.7710    0.0000 C   0  0
    2.8660    3.7500    0.0000 C   0  0
    2.8660   -2.2500    0.0000 C   0  0
    4.5980   -2.2500    0.0000 C   0  0
    3.7320   -2.7500    0.0000 C   0  0
    3.1950   -0.0600    0.0000 H   0  0
    2.2550    0.8580    0.0000 H   0  0
    2.6540    0.1670    0.0000 H   0  0
    4.2690    2.5600    0.0000 H   0  0
    2.6540    2.3330    0.0000 H   0  0
    2.2550    1.6420    0.0000 H   0  0
    4.2690    3.5600    0.0000 H   0  0
    5.4850   -0.4050    0.0000 H   0  0
    5.4850    2.9050    0.0000 H   0  0
    2.3290   -0.9400    0.0000 H   0  0
    5.1350   -0.9400    0.0000 H   0  0
    6.9340    0.4170    0.0000 H   0  0
    6.9340    2.0830    0.0000 H   0  0
    3.1760    4.2870    0.0000 H   0  0
    2.3290    4.0600    0.0000 H   0  0
    2.5560    3.2130    0.0000 H   0  0
    5.1350   -2.5600    0.0000 H   0  0
  1 18  1  0
  2 20  1  0
  6  3  1  6
  3 17  1  0
  3 27  1  0
  4  5  1  0
  4  8  1  0
  4 10  1  6
  4 21  1  1
  5  7  1  0
  5 22  1  0
  5 23  1  0
  6  7  1  0
  6  9  1  0
  6 24  1  1
  7 25  1  0
  7 26  1  0
  8  9  1  0
  8 11  2  0
  9 12  2  0
 10 13  2  0
 10 14  1  0
 11 15  1  0
 11 28  1  0
 12 16  1  0
 12 29  1  0
 13 18  1  0
 13 30  1  0
 14 19  2  0
 14 31  1  0
 15 16  2  0
 15 32  1  0
 16 33  1  0
 17 34  1  0
 17 35  1  0
 17 36  1  0
 18 20  2  0
 19 20  1  0
 19 37  1  0
M  END
> <Name>
68617

> <PUBCHEM_COMPOUND_CID>
68617

> <Toxicity>
0

> <Data Set>
TrainingSet

$$$$
5284616
  SciTegic12242523262D

144147  0  0  1  0            999 V2000
    6.7840   -2.6780    0.0000 O   0  0
    8.5160   -3.6780    0.0000 O   0  0
    9.0810    2.5270    0.0000 O   0  0
   13.5430   -1.0120    0.0000 O   0  0
   11.6920   -0.3440    0.0000 O   0  0
   10.2060    0.9960    0.0000 O   0  0
    6.2530    1.2770    0.0000 O   0  0
   13.0190    1.4280    0.0000 O   0  0
   11.6380   -1.0270    0.0000 O   0  0
   10.8110    0.9880    0.0000 O   0  0
    2.3100    1.1950    0.0000 O   0  0
    4.9410    0.8710    0.0000 O   0  0
    3.1510   -1.0120    0.0000 O   0  0
   11.8110    1.9880    0.0000 N   0  0
    8.5160   -0.6780    0.0000 C   0  0  1  0  0  0
    7.6500   -1.1780    0.0000 C   0  0
    9.3820   -1.1780    0.0000 C   0  0
    8.5160    0.3220    0.0000 C   0  0
    7.6500   -2.1780    0.0000 C   0  0  2  0  0  0
    9.3820   -2.1780    0.0000 C   0  0
    8.5160   -2.6780    0.0000 C   0  0  1  0  0  0
    7.8730    1.0880    0.0000 C   0  0  2  0  0  0
    8.2150    2.0270    0.0000 C   0  0  2  0  0  0
    6.8880    0.9140    0.0000 C   0  0
    7.3490    2.5270    0.0000 C   0  0
   13.5510    0.0060    0.0000 C   0  0  1  0  0  0
   10.9450    2.4880    0.0000 C   0  0  1  0  0  0
   12.6770   -0.5120    0.0000 C   0  0  2  0  0  0
   13.5430   -2.0120    0.0000 C   0  0  1  0  0  0
   14.4330   -0.4980    0.0000 C   0  0
   14.4290   -1.5140    0.0000 C   0  0
   10.9450    3.4880    0.0000 C   0  0
   10.0790    1.9880    0.0000 C   0  0
    6.3830    2.2690    0.0000 C   0  0
   12.6770    2.4880    0.0000 C   0  0
   11.8110    3.9880    0.0000 C   0  0
   12.6770    3.4880    0.0000 C   0  0
    6.7840   -3.6780    0.0000 C   0  0
   12.6770   -2.5120    0.0000 C   0  0
   12.6770    0.4880    0.0000 C   0  0
   11.8110    0.9880    0.0000 C   0  0
   14.1880    0.7770    0.0000 C   0  0
    5.5170    2.7690    0.0000 C   0  0  2  0  0  0
   11.8110   -2.0120    0.0000 C   0  0  1  0  0  0
    5.2580    3.7340    0.0000 C   0  0
    5.0170    1.9030    0.0000 C   0  0
   10.9450   -2.5120    0.0000 C   0  0
    4.0170    1.9030    0.0000 C   0  0
    3.3100    1.1950    0.0000 C   0  0  2  0  0  0
   10.9450   -3.5120    0.0000 C   0  0
   10.0790   -2.0120    0.0000 C   0  0
    4.0170    0.4880    0.0000 C   0  0  2  0  0  0
   10.6980   -0.6850    0.0000 C   0  0
    3.6340    2.8260    0.0000 C   0  0
    4.8830   -1.0120    0.0000 C   0  0  1  0  0  0
    4.0170   -0.5120    0.0000 C   0  0
    9.2130   -2.5120    0.0000 C   0  0
    5.7490   -0.5120    0.0000 C   0  0
    6.6150   -1.0120    0.0000 C   0  0  1  0  0  0
    4.8830   -2.0120    0.0000 C   0  0
    8.3470   -2.0120    0.0000 C   0  0
    6.6150   -2.0120    0.0000 C   0  0
    7.4810   -0.5120    0.0000 C   0  0
    7.4810   -2.5120    0.0000 C   0  0
    5.7340    0.2620    0.0000 C   0  0
    9.0530   -0.3680    0.0000 H   0  0
    7.4380   -0.5960    0.0000 H   0  0
    7.0390   -1.2860    0.0000 H   0  0
    9.9920   -1.2860    0.0000 H   0  0
    9.5940   -0.5960    0.0000 H   0  0
    9.1100    0.1440    0.0000 H   0  0
    8.8570    0.8400    0.0000 H   0  0
    7.6500   -2.7980    0.0000 H   0  0
    9.5940   -2.7610    0.0000 H   0  0
    9.9920   -2.0710    0.0000 H   0  0
    9.0530   -2.9880    0.0000 H   0  0
    7.6610    0.5050    0.0000 H   0  0
    8.8660    1.4810    0.0000 H   0  0
    6.7810    1.5250    0.0000 H   0  0
    6.2780    0.8060    0.0000 H   0  0
    6.9960    0.3030    0.0000 H   0  0
    7.7880    2.9660    0.0000 H   0  0
    7.0390    3.0640    0.0000 H   0  0
   13.1480    0.4780    0.0000 H   0  0
    9.0530   -3.9880    0.0000 H   0  0
   10.2090    2.9130    0.0000 H   0  0
   13.9640   -2.7500    0.0000 H   0  0
   15.0430   -0.6070    0.0000 H   0  0
   14.6440    0.0850    0.0000 H   0  0
   14.6360   -2.0980    0.0000 H   0  0
   15.0400   -1.4100    0.0000 H   0  0
   10.7330    4.0710    0.0000 H   0  0
   10.3350    3.3810    0.0000 H   0  0
   12.8890    1.9060    0.0000 H   0  0
   13.2880    2.5960    0.0000 H   0  0
   12.2100    4.4630    0.0000 H   0  0
   11.4130    4.4630    0.0000 H   0  0
   13.2880    3.3810    0.0000 H   0  0
   12.8890    4.0710    0.0000 H   0  0
   12.2790   -2.9870    0.0000 H   0  0
   13.0760   -2.9870    0.0000 H   0  0
    6.1640   -3.6780    0.0000 H   0  0
    6.7840   -4.2980    0.0000 H   0  0
    7.4040   -3.6780    0.0000 H   0  0
   14.6660    0.3820    0.0000 H   0  0
   14.5830    1.2550    0.0000 H   0  0
   13.7100    1.1720    0.0000 H   0  0
    6.0090    3.1460    0.0000 H   0  0
   12.3190   -1.6560    0.0000 H   0  0
   11.2140    0.0520    0.0000 H   0  0
    5.8570    3.8950    0.0000 H   0  0
    5.0980    4.3330    0.0000 H   0  0
    4.6590    3.5740    0.0000 H   0  0
    5.3270    1.3660    0.0000 H   0  0
   10.3250   -3.5120    0.0000 H   0  0
   10.9450   -4.1320    0.0000 H   0  0
   11.5650   -3.5120    0.0000 H   0  0
    3.0730    0.6230    0.0000 H   0  0
   10.0790   -1.3920    0.0000 H   0  0
    4.1380    1.0960    0.0000 H   0  0
   10.9100   -0.1020    0.0000 H   0  0
   10.1150   -0.4730    0.0000 H   0  0
   10.4860   -1.2680    0.0000 H   0  0
    4.2070    3.0640    0.0000 H   0  0
    3.3970    3.3990    0.0000 H   0  0
    3.0620    2.5890    0.0000 H   0  0
    4.3460   -1.3220    0.0000 H   0  0
    9.2130   -3.1320    0.0000 H   0  0
    6.1480   -0.0370    0.0000 H   0  0
    5.3510   -0.0370    0.0000 H   0  0
    2.0000    1.7320    0.0000 H   0  0
    6.6150   -0.3920    0.0000 H   0  0
    4.2630   -2.0120    0.0000 H   0  0
    4.8830   -2.6320    0.0000 H   0  0
    5.5030   -2.0120    0.0000 H   0  0
    8.3470   -1.3920    0.0000 H   0  0
    6.0780   -2.3220    0.0000 H   0  0
    7.7910   -1.0490    0.0000 H   0  0
    8.0180   -0.2020    0.0000 H   0  0
    7.1710    0.0250    0.0000 H   0  0
    7.4810   -3.1320    0.0000 H   0  0
    5.3570   -0.2300    0.0000 H   0  0
    6.2260   -0.1150    0.0000 H   0  0
    6.1120    0.7540    0.0000 H   0  0
 19  1  1  6
  1 38  1  0
 21  2  1  1
  2 85  1  0
  3 23  1  0
  3 33  1  0
  4 28  1  0
  4 29  1  0
 28  5  1  6
  5110  1  0
  6 33  2  0
  7 34  2  0
  8 40  2  0
 44  9  1  1
  9 53  1  0
 10 41  2  0
 49 11  1  6
 11131  1  0
 52 12  1  1
 12 65  1  0
 13 56  2  0
 14 27  1  0
 14 35  1  0
 14 41  1  0
 15 16  1  0
 15 17  1  0
 15 18  1  6
 15 66  1  1
 16 19  1  0
 16 67  1  0
 16 68  1  0
 17 20  1  0
 17 69  1  0
 17 70  1  0
 18 22  1  0
 18 71  1  0
 18 72  1  0
 19 21  1  0
 19 73  1  1
 20 21  1  0
 20 74  1  0
 20 75  1  0
 21 76  1  6
 22 23  1  0
 22 24  1  1
 22 77  1  6
 23 25  1  0
 23 78  1  1
 24 79  1  0
 24 80  1  0
 24 81  1  0
 25 34  1  0
 25 82  1  0
 25 83  1  0
 26 28  1  0
 26 30  1  0
 26 42  1  6
 26 84  1  1
 27 32  1  0
 27 33  1  0
 27 86  1  1
 28 40  1  0
 29 31  1  0
 29 39  1  0
 29 87  1  6
 30 31  1  0
 30 88  1  0
 30 89  1  0
 31 90  1  0
 31 91  1  0
 32 36  1  0
 32 92  1  0
 32 93  1  0
 34 43  1  0
 35 37  1  0
 35 94  1  0
 35 95  1  0
 36 37  1  0
 36 96  1  0
 36 97  1  0
 37 98  1  0
 37 99  1  0
 38102  1  0
 38103  1  0
 38104  1  0
 39 44  1  0
 39100  1  0
 39101  1  0
 40 41  1  0
 42105  1  0
 42106  1  0
 42107  1  0
 43 45  1  1
 43 46  1  0
 43108  1  6
 44 47  1  0
 44109  1  6
 45111  1  0
 45112  1  0
 45113  1  0
 46 48  2  0
 46114  1  0
 47 50  1  0
 47 51  2  0
 48 49  1  0
 48 54  1  0
 49 52  1  0
 49118  1  1
 50115  1  0
 50116  1  0
 50117  1  0
 51 57  1  0
 51119  1  0
 52 56  1  0
 52120  1  6
 53121  1  0
 53122  1  0
 53123  1  0
 54124  1  0
 54125  1  0
 54126  1  0
 55 56  1  0
 55 58  1  0
 55 60  1  1
 55127  1  6
 57 61  2  0
 57128  1  0
 58 59  1  0
 58129  1  0
 58130  1  0
 59 62  1  0
 59 63  1  6
 59132  1  1
 60133  1  0
 60134  1  0
 60135  1  0
 61 64  1  0
 61136  1  0
 62 64  2  0
 62137  1  0
 63138  1  0
 63139  1  0
 63140  1  0
 64141  1  0
 65142  1  0
 65143  1  0
 65144  1  0
M  END
> <Name>
5284616

> <PUBCHEM_COMPOUND_CID>
5284616

> <Toxicity>
1

> <Data Set>
TrainingSet

$$$$
154059
  SciTegic12242523262D

 53 57  0  0  1  0            999 V2000
    7.2640    0.9830    0.0000 O   0  0
    6.3980   -0.5170    0.0000 O   0  0
    9.6050    0.2080    0.0000 N   0  0
    5.5320    0.9830    0.0000 N   0  0
   10.1050    1.0740    0.0000 C   0  0
    8.1300    0.4830    0.0000 C   0  0  2  0  0  0
   11.4540    0.4450    0.0000 C   0  0
    9.5530    2.4640    0.0000 C   0  0
    8.3890   -0.4830    0.0000 C   0  0
   10.9540   -0.4210    0.0000 C   0  0
    8.6460    2.0410    0.0000 C   0  0
    6.3980    0.4830    0.0000 C   0  0
    4.6660    0.4830    0.0000 C   0  0  2  0  0  0
    5.5320    1.9830    0.0000 C   0  0
    3.8000    0.9830    0.0000 C   0  0
    4.6660    2.4830    0.0000 C   0  0
    3.8000    1.9830    0.0000 C   0  0
    4.6660   -0.5170    0.0000 C   0  0
    2.9060    0.4480    0.0000 C   0  0
    2.9060    2.5170    0.0000 C   0  0
    5.5320   -1.0170    0.0000 C   0  0
    3.8000   -1.0170    0.0000 C   0  0
    2.0000    0.9620    0.0000 C   0  0
    2.0000    2.0030    0.0000 C   0  0
    5.5320   -2.0170    0.0000 C   0  0
    3.8000   -2.0170    0.0000 C   0  0
    4.6660   -2.5170    0.0000 C   0  0
   10.5560    1.5000    0.0000 H   0  0
    7.6380    0.1050    0.0000 H   0  0
   11.9990    0.1510    0.0000 H   0  0
   11.7320    0.9990    0.0000 H   0  0
   10.1240    2.7040    0.0000 H   0  0
    9.3020    3.0300    0.0000 H   0  0
    7.8060   -0.6940    0.0000 H   0  0
    8.6490   -1.0460    0.0000 H   0  0
   10.6750   -0.9750    0.0000 H   0  0
   11.4990   -0.7150    0.0000 H   0  0
    8.3760    2.5990    0.0000 H   0  0
    8.0930    1.7620    0.0000 H   0  0
    5.2030    0.1730    0.0000 H   0  0
    6.1430    1.8750    0.0000 H   0  0
    5.7440    2.5650    0.0000 H   0  0
    5.0650    2.9580    0.0000 H   0  0
    4.2680    2.9580    0.0000 H   0  0
    2.9130   -0.1720    0.0000 H   0  0
    2.9130    3.1370    0.0000 H   0  0
    6.0690   -0.7070    0.0000 H   0  0
    3.2630   -0.7070    0.0000 H   0  0
    1.4640    0.6500    0.0000 H   0  0
    1.4640    2.3160    0.0000 H   0  0
    6.0690   -2.3270    0.0000 H   0  0
    3.2630   -2.3270    0.0000 H   0  0
    4.6660   -3.1370    0.0000 H   0  0
  6  1  1  6
  1 12  1  0
  2 12  2  0
  3  9  1  0
  3 10  1  0
  3 11  1  0
  4 12  1  0
  4 13  1  0
  4 14  1  0
  5  6  1  0
  5  7  1  0
  5  8  1  0
  5 28  1  0
  6  9  1  0
  6 29  1  1
  7 10  1  0
  7 30  1  0
  7 31  1  0
  8 11  1  0
  8 32  1  0
  8 33  1  0
  9 34  1  0
  9 35  1  0
 10 36  1  0
 10 37  1  0
 11 38  1  0
 11 39  1  0
 13 15  1  0
 13 18  1  1
 13 40  1  6
 14 16  1  0
 14 41  1  0
 14 42  1  0
 15 17  1  0
 15 19  2  0
 16 17  1  0
 16 43  1  0
 16 44  1  0
 17 20  2  0
 18 21  2  0
 18 22  1  0
 19 23  1  0
 19 45  1  0
 20 24  1  0
 20 46  1  0
 21 25  1  0
 21 47  1  0
 22 26  2  0
 22 48  1  0
 23 24  2  0
 23 49  1  0
 24 50  1  0
 25 27  2  0
 25 51  1  0
 26 27  1  0
 26 52  1  0
 27 53  1  0
M  END
> <Name>
154059

> <PUBCHEM_COMPOUND_CID>
154059

> <Toxicity>
1

> <Data Set>
TrainingSet

$$$$
216239
  SciTegic12242523262D

 48 50  0  0  0  0            999 V2000
    2.0000    3.7500    0.0000 Cl  0  0
    3.7320    5.7500    0.0000 F   0  0
    4.7320    4.7500    0.0000 F   0  0
    2.7320    4.7500    0.0000 F   0  0
    6.3300   -3.7500    0.0000 O   0  0
    4.5980    0.2500    0.0000 O   0  0
    9.7940   -2.7500    0.0000 O   0  0
    5.4640    1.7500    0.0000 N   0  0
    6.3300    0.2500    0.0000 N   0  0
    8.9280   -5.2500    0.0000 N   0  0
   10.6600   -4.2500    0.0000 N   0  0
    4.5980    2.2500    0.0000 C   0  0
    3.7320    3.7500    0.0000 C   0  0
    4.5980    3.2500    0.0000 C   0  0
    6.3300   -0.7500    0.0000 C   0  0
    3.7320    1.7500    0.0000 C   0  0
    6.3300   -2.7500    0.0000 C   0  0
    2.8660    3.2500    0.0000 C   0  0
    7.1960   -1.2500    0.0000 C   0  0
    5.4640   -1.2500    0.0000 C   0  0
    2.8660    2.2500    0.0000 C   0  0
    7.1960   -2.2500    0.0000 C   0  0
    5.4640   -2.2500    0.0000 C   0  0
    5.4640    0.7500    0.0000 C   0  0
    3.7320    4.7500    0.0000 C   0  0
    7.1960   -4.2500    0.0000 C   0  0
    8.0620   -3.7500    0.0000 C   0  0
    8.9280   -4.2500    0.0000 C   0  0
    7.1960   -5.2500    0.0000 C   0  0
    8.0620   -5.7500    0.0000 C   0  0
    9.7940   -3.7500    0.0000 C   0  0
   11.5260   -3.7500    0.0000 C   0  0
    5.1350    3.5600    0.0000 H   0  0
    3.7320    1.1300    0.0000 H   0  0
    6.0010    2.0600    0.0000 H   0  0
    7.7330   -0.9400    0.0000 H   0  0
    4.9270   -0.9400    0.0000 H   0  0
    6.8670    0.5600    0.0000 H   0  0
    2.3290    1.9400    0.0000 H   0  0
    7.7330   -2.5600    0.0000 H   0  0
    4.9270   -2.5600    0.0000 H   0  0
    8.0620   -3.1300    0.0000 H   0  0
    6.6590   -5.5600    0.0000 H   0  0
    8.0620   -6.3700    0.0000 H   0  0
   10.6600   -4.8700    0.0000 H   0  0
   11.8360   -4.2870    0.0000 H   0  0
   12.0630   -3.4400    0.0000 H   0  0
   11.2160   -3.2130    0.0000 H   0  0
  1 18  1  0
  2 25  1  0
  3 25  1  0
  4 25  1  0
  5 17  1  0
  5 26  1  0
  6 24  2  0
  7 31  2  0
  8 12  1  0
  8 24  1  0
  8 35  1  0
  9 15  1  0
  9 24  1  0
  9 38  1  0
 10 28  2  0
 10 30  1  0
 11 31  1  0
 11 32  1  0
 11 45  1  0
 12 14  2  0
 12 16  1  0
 13 14  1  0
 13 18  2  0
 13 25  1  0
 14 33  1  0
 15 19  2  0
 15 20  1  0
 16 21  2  0
 16 34  1  0
 17 22  2  0
 17 23  1  0
 18 21  1  0
 19 22  1  0
 19 36  1  0
 20 23  2  0
 20 37  1  0
 21 39  1  0
 22 40  1  0
 23 41  1  0
 26 27  2  0
 26 29  1  0
 27 28  1  0
 27 42  1  0
 28 31  1  0
 29 30  2  0
 29 43  1  0
 30 44  1  0
 32 46  1  0
 32 47  1  0
 32 48  1  0
M  END
> <Name>
216239

> <PUBCHEM_COMPOUND_CID>
216239

> <Toxicity>
1

> <Data Set>
TrainingSet

$$$$
24831714
  SciTegic12242523262D

 53 55  0  0  1  0            999 V2000
    4.5980   -1.4050    0.0000 Cl  0  0
    6.3300    4.5950    0.0000 S   0  0
    5.4640    3.0950    0.0000 O   0  0
    2.8660    2.5950    0.0000 O   0  0
    2.8660    4.5950    0.0000 O   0  0
    4.5980    5.5950    0.0000 O   0  0
    2.8660   -4.4050    0.0000 O   0  0
    3.7320    3.0950    0.0000 C   0  0  2  0  0  0
    3.7320    4.0950    0.0000 C   0  0  2  0  0  0
    4.5980    2.5950    0.0000 C   0  0  2  0  0  0
    4.5980    4.5950    0.0000 C   0  0  1  0  0  0
    5.4640    4.0950    0.0000 C   0  0  1  0  0  0
    4.5980    1.5950    0.0000 C   0  0
    3.7320    1.0950    0.0000 C   0  0
    5.4640    1.0950    0.0000 C   0  0
    3.7320    0.0950    0.0000 C   0  0
    5.4640    0.0950    0.0000 C   0  0
    2.8660   -0.4050    0.0000 C   0  0
    4.5980   -0.4050    0.0000 C   0  0
    7.1960    4.0950    0.0000 C   0  0
    2.8660   -1.4050    0.0000 C   0  0
    3.7320   -1.9050    0.0000 C   0  0
    2.0000   -1.9050    0.0000 C   0  0
    3.7320   -2.9050    0.0000 C   0  0
    2.0000   -2.9050    0.0000 C   0  0
    2.8660   -3.4050    0.0000 C   0  0
    2.0000   -4.9050    0.0000 C   0  0
    2.0000   -5.9050    0.0000 C   0  0
    3.7320    2.4750    0.0000 H   0  0
    3.7320    4.7150    0.0000 H   0  0
    5.1350    2.2850    0.0000 H   0  0
    4.0610    4.9050    0.0000 H   0  0
    5.4640    4.7150    0.0000 H   0  0
    3.1950    1.4050    0.0000 H   0  0
    2.3290    2.9050    0.0000 H   0  0
    2.8660    5.2150    0.0000 H   0  0
    6.0010    1.4050    0.0000 H   0  0
    5.1350    5.9050    0.0000 H   0  0
    6.0010   -0.2150    0.0000 H   0  0
    2.6540    0.1780    0.0000 H   0  0
    2.2550   -0.5130    0.0000 H   0  0
    6.8860    3.5580    0.0000 H   0  0
    7.7330    3.7850    0.0000 H   0  0
    7.5060    4.6320    0.0000 H   0  0
    4.2690   -1.5950    0.0000 H   0  0
    1.4630   -1.5950    0.0000 H   0  0
    4.2690   -3.2150    0.0000 H   0  0
    1.4630   -3.2150    0.0000 H   0  0
    1.7880   -4.3220    0.0000 H   0  0
    1.3890   -5.0130    0.0000 H   0  0
    1.3800   -5.9050    0.0000 H   0  0
    2.0000   -6.5250    0.0000 H   0  0
    2.6200   -5.9050    0.0000 H   0  0
  1 19  1  0
 12  2  1  1
  2 20  1  0
  3 10  1  0
  3 12  1  0
  8  4  1  6
  4 35  1  0
  9  5  1  1
  5 36  1  0
 11  6  1  6
  6 38  1  0
  7 26  1  0
  7 27  1  0
  8  9  1  0
  8 10  1  0
  8 29  1  1
  9 11  1  0
  9 30  1  6
 10 13  1  1
 10 31  1  6
 11 12  1  0
 11 32  1  1
 12 33  1  6
 13 14  2  0
 13 15  1  0
 14 16  1  0
 14 34  1  0
 15 17  2  0
 15 37  1  0
 16 18  1  0
 16 19  2  0
 17 19  1  0
 17 39  1  0
 18 21  1  0
 18 40  1  0
 18 41  1  0
 20 42  1  0
 20 43  1  0
 20 44  1  0
 21 22  1  0
 21 23  2  0
 22 24  2  0
 22 45  1  0
 23 25  1  0
 23 46  1  0
 24 26  1  0
 24 47  1  0
 25 26  2  0
 25 48  1  0
 27 28  1  0
 27 49  1  0
 27 50  1  0
 28 51  1  0
 28 52  1  0
 28 53  1  0
M  END
> <Name>
24831714

> <PUBCHEM_COMPOUND_CID>
24831714

> <Toxicity>
1

> <Data Set>
TrainingSet

$$$$
5253
  SciTegic12242523262D

 38 38  0  0  1  0            999 V2000
    5.4640    3.3170    0.0000 S   0  0
    5.4640   -1.6830    0.0000 O   0  0
    4.9640    4.1830    0.0000 O   0  0
    5.9640    2.4510    0.0000 O   0  0
    3.7320   -2.6830    0.0000 N   0  0
    4.5980    2.8170    0.0000 N   0  0
    4.5980   -1.1830    0.0000 C   0  0
    3.7320   -1.6830    0.0000 C   0  0
    2.8660   -3.1830    0.0000 C   0  0
    4.5980   -0.1830    0.0000 C   0  0
    3.7320    0.3170    0.0000 C   0  0
    5.4640    0.3170    0.0000 C   0  0
    2.8660   -4.1830    0.0000 C   0  0
    2.0000   -2.6830    0.0000 C   0  0
    4.5980    1.8170    0.0000 C   0  0
    3.7320    1.3170    0.0000 C   0  0
    5.4640    1.3170    0.0000 C   0  0
    6.3300    3.8170    0.0000 C   0  0
    4.5980   -2.0330    0.0000 H   0  0
    3.5200   -1.1000    0.0000 H   0  0
    3.1220   -1.7910    0.0000 H   0  0
    2.8660   -2.5630    0.0000 H   0  0
    4.2690   -2.9930    0.0000 H   0  0
    3.1950    0.0070    0.0000 H   0  0
    6.0010    0.0070    0.0000 H   0  0
    2.2460   -4.1830    0.0000 H   0  0
    2.8660   -4.8030    0.0000 H   0  0
    3.4860   -4.1830    0.0000 H   0  0
    2.3100   -2.1460    0.0000 H   0  0
    1.4630   -2.3730    0.0000 H   0  0
    1.6900   -3.2200    0.0000 H   0  0
    3.1950    1.6270    0.0000 H   0  0
    6.0010    1.6270    0.0000 H   0  0
    5.4640   -2.3030    0.0000 H   0  0
    4.0610    3.1270    0.0000 H   0  0
    6.6400    3.2800    0.0000 H   0  0
    6.8670    4.1270    0.0000 H   0  0
    6.0200    4.3540    0.0000 H   0  0
  1  3  2  0
  1  4  2  0
  1  6  1  0
  1 18  1  0
  2  7  1  0
  2 34  1  0
  5  8  1  0
  5  9  1  0
  5 23  1  0
  6 15  1  0
  6 35  1  0
  7  8  1  0
  7 10  1  0
  7 19  1  0
  8 20  1  0
  8 21  1  0
  9 13  1  0
  9 14  1  0
  9 22  1  0
 10 11  2  0
 10 12  1  0
 11 16  1  0
 11 24  1  0
 12 17  2  0
 12 25  1  0
 13 26  1  0
 13 27  1  0
 13 28  1  0
 14 29  1  0
 14 30  1  0
 14 31  1  0
 15 16  2  0
 15 17  1  0
 16 32  1  0
 17 33  1  0
 18 36  1  0
 18 37  1  0
 18 38  1  0
M  END
> <Name>
5253

> <PUBCHEM_COMPOUND_CID>
5253

> <Toxicity>
1

> <Data Set>
TrainingSet

$$$$
5833
  SciTegic12242523262D

 61 65  0  0  1  0            999 V2000
    3.7320   -0.3760    0.0000 S   0  0
    7.1540   -2.7420    0.0000 O   0  0
    8.5370   -3.8660    0.0000 O   0  0
    6.4210    4.3240    0.0000 O   0  0
    2.8490    1.1140    0.0000 O   0  0
    6.3680   -1.8730    0.0000 C   0  0  1  0  0  0
    5.5020   -1.3730    0.0000 C   0  0  2  0  0  0
    5.5020   -0.3730    0.0000 C   0  0  1  0  0  0
    6.1590   -2.8450    0.0000 C   0  0  2  0  0  0
    6.3680    0.1270    0.0000 C   0  0  1  0  0  0
    7.2340   -1.3730    0.0000 C   0  0
    4.7650   -2.0400    0.0000 C   0  0
    6.3840    1.1690    0.0000 C   0  0  2  0  0  0
    7.2340   -0.3730    0.0000 C   0  0
    5.1700   -2.9480    0.0000 C   0  0
    4.5920    0.1340    0.0000 C   0  0  1  0  0  0
    7.3530   -2.0460    0.0000 C   0  0
    5.9490   -3.8220    0.0000 C   0  0
    5.4860    1.6960    0.0000 C   0  0
    4.5840    1.1760    0.0000 C   0  0
    7.3360    1.6890    0.0000 C   0  0
    7.2460    0.6620    0.0000 C   0  0
    6.8140   -4.3240    0.0000 C   0  0
    7.5590   -3.6560    0.0000 C   0  0
    7.3530    2.7740    0.0000 C   0  0
    5.4780    2.7810    0.0000 C   0  0
    6.4170    3.3240    0.0000 C   0  0
    2.8600    0.1140    0.0000 C   0  0
    2.0000   -0.3960    0.0000 C   0  0
    4.7250   -1.0280    0.0000 H   0  0
    4.7690   -0.8040    0.0000 H   0  0
    7.1080    0.5460    0.0000 H   0  0
    7.4460   -1.9550    0.0000 H   0  0
    7.8450   -1.2650    0.0000 H   0  0
    4.4000   -1.5390    0.0000 H   0  0
    4.2290   -2.3510    0.0000 H   0  0
    7.8450   -0.4800    0.0000 H   0  0
    7.4460    0.2100    0.0000 H   0  0
    4.5810   -3.1390    0.0000 H   0  0
    5.2990   -3.5540    0.0000 H   0  0
    4.0520    0.4390    0.0000 H   0  0
    7.2450   -2.6570    0.0000 H   0  0
    7.9640   -2.1540    0.0000 H   0  0
    7.4610   -1.4360    0.0000 H   0  0
    5.3600   -3.6300    0.0000 H   0  0
    5.6960   -4.3880    0.0000 H   0  0
    4.3700    1.7580    0.0000 H   0  0
    3.9740    1.0650    0.0000 H   0  0
    7.5360    1.1020    0.0000 H   0  0
    7.9490    1.7860    0.0000 H   0  0
    6.9320    0.1280    0.0000 H   0  0
    7.7810    0.3480    0.0000 H   0  0
    7.5600    1.1970    0.0000 H   0  0
    6.4490   -4.8250    0.0000 H   0  0
    7.2740   -4.7400    0.0000 H   0  0
    7.9620    2.6590    0.0000 H   0  0
    7.5710    3.3550    0.0000 H   0  0
    4.9400    3.0890    0.0000 H   0  0
    1.6840    0.1370    0.0000 H   0  0
    1.4670   -0.7120    0.0000 H   0  0
    2.3160   -0.9290    0.0000 H   0  0
 16  1  1  6
  1 28  1  0
  9  2  1  1
  2 24  1  0
  3 24  2  0
  4 27  2  0
  5 28  2  0
  6  7  1  0
  6  9  1  0
  6 11  1  0
  6 17  1  1
  7  8  1  0
  7 12  1  0
  7 30  1  6
  8 10  1  0
  8 16  1  0
  8 31  1  1
  9 15  1  0
  9 18  1  6
 10 13  1  0
 10 14  1  0
 10 32  1  6
 11 14  1  0
 11 33  1  0
 11 34  1  0
 12 15  1  0
 12 35  1  0
 12 36  1  0
 13 19  1  0
 13 21  1  0
 13 22  1  1
 14 37  1  0
 14 38  1  0
 15 39  1  0
 15 40  1  0
 16 20  1  0
 16 41  1  1
 17 42  1  0
 17 43  1  0
 17 44  1  0
 18 23  1  0
 18 45  1  0
 18 46  1  0
 19 20  1  0
 19 26  2  0
 20 47  1  0
 20 48  1  0
 21 25  1  0
 21 49  1  0
 21 50  1  0
 22 51  1  0
 22 52  1  0
 22 53  1  0
 23 24  1  0
 23 54  1  0
 23 55  1  0
 25 27  1  0
 25 56  1  0
 25 57  1  0
 26 27  1  0
 26 58  1  0
 28 29  1  0
 29 59  1  0
 29 60  1  0
 29 61  1  0
M  END
> <Name>
5833

> <PUBCHEM_COMPOUND_CID>
5833

> <Toxicity>
0

> <Data Set>
TrainingSet

$$$$
5344
  SciTegic12242523262D

 31 32  0  0  0  0            999 V2000
    3.0000    0.3470    0.0000 S   0  0
    4.7800    1.4400    0.0000 O   0  0
    4.0000    0.3470    0.0000 O   0  0
    2.0000    0.3470    0.0000 O   0  0
    3.0000    1.3470    0.0000 N   0  0
    5.4490    2.1830    0.0000 N   0  0
    3.0000   -3.6530    0.0000 N   0  0
    3.0000   -0.6530    0.0000 C   0  0
    3.8660    1.8470    0.0000 C   0  0
    3.9710    2.8420    0.0000 C   0  0
    4.9490    3.0490    0.0000 C   0  0
    2.1340   -1.1530    0.0000 C   0  0
    3.8660   -1.1530    0.0000 C   0  0
    3.2270    3.5110    0.0000 C   0  0
    2.1340   -2.1530    0.0000 C   0  0
    3.8660   -2.1530    0.0000 C   0  0
    3.0000   -2.6530    0.0000 C   0  0
    5.3550    3.9630    0.0000 C   0  0
    2.4630    1.6570    0.0000 H   0  0
    1.5970   -0.8430    0.0000 H   0  0
    4.4030   -0.8430    0.0000 H   0  0
    3.6420    3.9710    0.0000 H   0  0
    2.7670    3.9260    0.0000 H   0  0
    2.8130    3.0500    0.0000 H   0  0
    1.5970   -2.4630    0.0000 H   0  0
    4.4030   -2.4630    0.0000 H   0  0
    5.9220    3.7110    0.0000 H   0  0
    5.6080    4.5290    0.0000 H   0  0
    4.7890    4.2150    0.0000 H   0  0
    2.4630   -3.9630    0.0000 H   0  0
    3.5370   -3.9630    0.0000 H   0  0
  1  3  2  0
  1  4  2  0
  1  5  1  0
  1  8  1  0
  2  6  1  0
  2  9  1  0
  5  9  1  0
  5 19  1  0
  6 11  2  0
  7 17  1  0
  7 30  1  0
  7 31  1  0
  8 12  2  0
  8 13  1  0
  9 10  2  0
 10 11  1  0
 10 14  1  0
 11 18  1  0
 12 15  1  0
 12 20  1  0
 13 16  2  0
 13 21  1  0
 14 22  1  0
 14 23  1  0
 14 24  1  0
 15 17  2  0
 15 25  1  0
 16 17  1  0
 16 26  1  0
 18 27  1  0
 18 28  1  0
 18 29  1  0
M  END
> <Name>
5344

> <PUBCHEM_COMPOUND_CID>
5344

> <Toxicity>
0

> <Data Set>
TrainingSet

$$$$
5329102
  SciTegic12242523262D

 56 58  0  0  0  0            999 V2000
    2.0000   -1.4370    0.0000 F   0  0
    8.5990    2.0250    0.0000 O   0  0
    7.1280   -2.4370    0.0000 O   0  0
   12.2030    2.1380    0.0000 N   0  0
    7.5760   -1.1460    0.0000 N   0  0
    9.8840    0.8630    0.0000 N   0  0
    5.5440   -3.2420    0.0000 N   0  0
   11.5320    1.3960    0.0000 C   0  0
    8.2360    0.3310    0.0000 C   0  0
    7.2420    0.4370    0.0000 C   0  0
    6.8340   -0.4760    0.0000 C   0  0
   10.5550    1.6050    0.0000 C   0  0
    8.4420   -0.6480    0.0000 C   0  0
   13.1810    1.9280    0.0000 C   0  0
   11.8960    3.0890    0.0000 C   0  0
    8.9060    1.0730    0.0000 C   0  0
    5.5440   -1.6320    0.0000 C   0  0
    5.8550   -0.6820    0.0000 C   0  0
    4.5980   -1.9370    0.0000 C   0  0
    6.7430    1.3040    0.0000 C   0  0
    4.5980   -2.9370    0.0000 C   0  0
    9.3550   -1.0560    0.0000 C   0  0
    6.1280   -2.4370    0.0000 C   0  0
   13.8510    2.6700    0.0000 C   0  0
   12.5660    3.8310    0.0000 C   0  0
    3.7320   -1.4370    0.0000 C   0  0
    3.7320   -3.4370    0.0000 C   0  0
    2.8660   -1.9370    0.0000 C   0  0
    2.8660   -2.9370    0.0000 C   0  0
   11.2990    0.8210    0.0000 H   0  0
   12.0580    1.0660    0.0000 H   0  0
   10.7880    2.1800    0.0000 H   0  0
   10.0300    1.9350    0.0000 H   0  0
    7.5100   -1.7630    0.0000 H   0  0
   12.9480    1.3540    0.0000 H   0  0
   13.7060    1.5990    0.0000 H   0  0
   11.5150    3.5780    0.0000 H   0  0
   11.3480    2.7990    0.0000 H   0  0
    5.4410   -0.2200    0.0000 H   0  0
   10.0750    0.2730    0.0000 H   0  0
    7.2810    1.6130    0.0000 H   0  0
    6.4340    1.8420    0.0000 H   0  0
    6.2060    0.9950    0.0000 H   0  0
    9.1020   -1.6220    0.0000 H   0  0
    9.9210   -1.3090    0.0000 H   0  0
    9.6080   -0.4900    0.0000 H   0  0
   14.3110    2.2540    0.0000 H   0  0
   14.2670    3.1300    0.0000 H   0  0
   13.3910    3.0860    0.0000 H   0  0
   13.0260    3.4160    0.0000 H   0  0
   12.9820    4.2910    0.0000 H   0  0
   12.1060    4.2470    0.0000 H   0  0
    5.7370   -3.8310    0.0000 H   0  0
    3.7320   -0.8170    0.0000 H   0  0
    3.7320   -4.0570    0.0000 H   0  0
    2.3290   -3.2470    0.0000 H   0  0
  1 28  1  0
  2 16  2  0
  3 23  2  0
  4  8  1  0
  4 14  1  0
  4 15  1  0
  5 11  1  0
  5 13  1  0
  5 34  1  0
  6 12  1  0
  6 16  1  0
  6 40  1  0
  7 21  1  0
  7 23  1  0
  7 53  1  0
  8 12  1  0
  8 30  1  0
  8 31  1  0
  9 10  1  0
  9 13  2  0
  9 16  1  0
 10 11  2  0
 10 20  1  0
 11 18  1  0
 12 32  1  0
 12 33  1  0
 13 22  1  0
 14 24  1  0
 14 35  1  0
 14 36  1  0
 15 25  1  0
 15 37  1  0
 15 38  1  0
 17 18  2  0
 17 19  1  0
 17 23  1  0
 18 39  1  0
 19 21  1  0
 19 26  2  0
 20 41  1  0
 20 42  1  0
 20 43  1  0
 21 27  2  0
 22 44  1  0
 22 45  1  0
 22 46  1  0
 24 47  1  0
 24 48  1  0
 24 49  1  0
 25 50  1  0
 25 51  1  0
 25 52  1  0
 26 28  1  0
 26 54  1  0
 27 29  1  0
 27 55  1  0
 28 29  2  0
 29 56  1  0
M  END
> <Name>
5329102

> <PUBCHEM_COMPOUND_CID>
5329102

> <Toxicity>
1

> <Data Set>
TrainingSet

$$$$
7172
  SciTegic12242523262D

 25 25  0  0  1  0            999 V2000
    2.0000    1.6550    0.0000 O   0  0
    2.8660   -2.8450    0.0000 O   0  0
    3.7320    2.6550    0.0000 N   0  0
    2.8660    1.1550    0.0000 C   0  0
    3.7320    1.6550    0.0000 C   0  0
    2.8660    0.1550    0.0000 C   0  0
    2.0000   -0.3450    0.0000 C   0  0
    3.7320   -0.3450    0.0000 C   0  0
    2.0000   -1.3450    0.0000 C   0  0
    3.7320   -1.3450    0.0000 C   0  0
    2.8660   -1.8450    0.0000 C   0  0
    4.5980    3.1550    0.0000 C   0  0
    2.8660    2.0050    0.0000 H   0  0
    3.9440    1.0720    0.0000 H   0  0
    4.3430    1.7630    0.0000 H   0  0
    1.4630   -0.0350    0.0000 H   0  0
    4.2690   -0.0350    0.0000 H   0  0
    3.1950    2.9650    0.0000 H   0  0
    1.4630   -1.6550    0.0000 H   0  0
    4.2690   -1.6550    0.0000 H   0  0
    2.0000    2.2750    0.0000 H   0  0
    4.9080    2.6180    0.0000 H   0  0
    5.1350    3.4650    0.0000 H   0  0
    4.2880    3.6920    0.0000 H   0  0
    2.3290   -3.1550    0.0000 H   0  0
  1  4  1  0
  1 21  1  0
  2 11  1  0
  2 25  1  0
  3  5  1  0
  3 12  1  0
  3 18  1  0
  4  5  1  0
  4  6  1  0
  4 13  1  0
  5 14  1  0
  5 15  1  0
  6  7  2  0
  6  8  1  0
  7  9  1  0
  7 16  1  0
  8 10  2  0
  8 17  1  0
  9 11  2  0
  9 19  1  0
 10 11  1  0
 10 20  1  0
 12 22  1  0
 12 23  1  0
 12 24  1  0
M  END
> <Name>
7172

> <PUBCHEM_COMPOUND_CID>
7172

> <Toxicity>
1

> <Data Set>
TrainingSet

$$$$
2733526
  SciTegic12242523262D

 57 59  0  0  0  0            999 V2000
    5.4640   -1.5000    0.0000 O   0  0
    3.7320   -3.5000    0.0000 N   0  0
    5.4640    2.5000    0.0000 C   0  0
    4.5980    3.0000    0.0000 C   0  0
    5.4640    1.5000    0.0000 C   0  0
    4.5980    4.0000    0.0000 C   0  0
    6.3300    3.0000    0.0000 C   0  0
    3.7320    2.5000    0.0000 C   0  0
    4.5980    1.0000    0.0000 C   0  0
    6.3300    1.0000    0.0000 C   0  0
    3.7320    4.5000    0.0000 C   0  0
    5.4640   -0.5000    0.0000 C   0  0
    4.5980    0.0000    0.0000 C   0  0
    6.3300    0.0000    0.0000 C   0  0
    6.3300    4.0000    0.0000 C   0  0
    7.1960    2.5000    0.0000 C   0  0
    3.7320    1.5000    0.0000 C   0  0
    2.8660    3.0000    0.0000 C   0  0
    4.5980   -3.0000    0.0000 C   0  0
    4.5980   -2.0000    0.0000 C   0  0
    7.1960    4.5000    0.0000 C   0  0
    8.0620    3.0000    0.0000 C   0  0
    2.8660    1.0000    0.0000 C   0  0
    2.0000    2.5000    0.0000 C   0  0
    8.0620    4.0000    0.0000 C   0  0
    2.0000    1.5000    0.0000 C   0  0
    3.7320   -4.5000    0.0000 C   0  0
    2.8660   -3.0000    0.0000 C   0  0
    5.2090    3.8920    0.0000 H   0  0
    4.8100    4.5830    0.0000 H   0  0
    4.0610    1.3100    0.0000 H   0  0
    6.8670    1.3100    0.0000 H   0  0
    4.0420    5.0370    0.0000 H   0  0
    3.1950    4.8100    0.0000 H   0  0
    3.4220    3.9630    0.0000 H   0  0
    4.0610   -0.3100    0.0000 H   0  0
    6.8670   -0.3100    0.0000 H   0  0
    5.7930    4.3100    0.0000 H   0  0
    7.1960    1.8800    0.0000 H   0  0
    4.8100   -3.5830    0.0000 H   0  0
    5.2090   -2.8920    0.0000 H   0  0
    4.2690    1.1900    0.0000 H   0  0
    2.8660    3.6200    0.0000 H   0  0
    4.3860   -1.4170    0.0000 H   0  0
    3.9880   -2.1080    0.0000 H   0  0
    7.1960    5.1200    0.0000 H   0  0
    8.5990    2.6900    0.0000 H   0  0
    2.8660    0.3800    0.0000 H   0  0
    1.4630    2.8100    0.0000 H   0  0
    8.5990    4.3100    0.0000 H   0  0
    1.4630    1.1900    0.0000 H   0  0
    3.1120   -4.5000    0.0000 H   0  0
    3.7320   -5.1200    0.0000 H   0  0
    4.3520   -4.5000    0.0000 H   0  0
    3.1760   -2.4630    0.0000 H   0  0
    2.3290   -2.6900    0.0000 H   0  0
    2.5560   -3.5370    0.0000 H   0  0
  1 12  1  0
  1 20  1  0
  2 19  1  0
  2 27  1  0
  2 28  1  0
  3  4  2  0
  3  5  1  0
  3  7  1  0
  4  6  1  0
  4  8  1  0
  5  9  2  0
  5 10  1  0
  6 11  1  0
  6 29  1  0
  6 30  1  0
  7 15  2  0
  7 16  1  0
  8 17  2  0
  8 18  1  0
  9 13  1  0
  9 31  1  0
 10 14  2  0
 10 32  1  0
 11 33  1  0
 11 34  1  0
 11 35  1  0
 12 13  2  0
 12 14  1  0
 13 36  1  0
 14 37  1  0
 15 21  1  0
 15 38  1  0
 16 22  2  0
 16 39  1  0
 17 23  1  0
 17 42  1  0
 18 24  2  0
 18 43  1  0
 19 20  1  0
 19 40  1  0
 19 41  1  0
 20 44  1  0
 20 45  1  0
 21 25  2  0
 21 46  1  0
 22 25  1  0
 22 47  1  0
 23 26  2  0
 23 48  1  0
 24 26  1  0
 24 49  1  0
 25 50  1  0
 26 51  1  0
 27 52  1  0
 27 53  1  0
 27 54  1  0
 28 55  1  0
 28 56  1  0
 28 57  1  0
M  END
> <Name>
2733526

> <PUBCHEM_COMPOUND_CID>
2733526

> <Toxicity>
1

> <Data Set>
TestSet

$$$$
5394
  SciTegic12242523262D

 20 21  0  0  0  0            999 V2000
    3.7320    2.2750    0.0000 O   0  0
    5.1870   -2.2240    0.0000 O   0  0
    4.5980    0.7750    0.0000 N   0  0
    2.8660    0.7750    0.0000 N   0  0
    6.1280    0.2750    0.0000 N   0  0
    3.7320   -0.7250    0.0000 N   0  0
    2.8660   -0.2250    0.0000 N   0  0
    6.8340   -1.6860    0.0000 N   0  0
    4.5980   -0.2250    0.0000 C   0  0
    5.5440   -0.5290    0.0000 C   0  0
    3.7320    1.2750    0.0000 C   0  0
    5.5440    1.0800    0.0000 C   0  0
    2.0000    1.2750    0.0000 C   0  0
    5.8550   -1.4800    0.0000 C   0  0
    5.7370    1.6700    0.0000 H   0  0
    2.3100    1.8120    0.0000 H   0  0
    1.4630    1.5850    0.0000 H   0  0
    1.6900    0.7380    0.0000 H   0  0
    7.0260   -2.2750    0.0000 H   0  0
    7.2480   -1.2250    0.0000 H   0  0
  1 11  2  0
  2 14  2  0
  3  9  1  0
  3 11  1  0
  3 12  1  0
  4  7  1  0
  4 11  1  0
  4 13  1  0
  5 10  1  0
  5 12  2  0
  6  7  2  0
  6  9  1  0
  8 14  1  0
  8 19  1  0
  8 20  1  0
  9 10  2  0
 10 14  1  0
 12 15  1  0
 13 16  1  0
 13 17  1  0
 13 18  1  0
M  END
> <Name>
5394

> <PUBCHEM_COMPOUND_CID>
5394

> <Toxicity>
1

> <Data Set>
TrainingSet

$$$$
452548
  SciTegic12242523262D

 78 85  0  0  1  0            999 V2000
    4.3360    5.0990    0.0000 S   0  0
    4.2690   -1.0550    0.0000 O   0  0
    7.1990    0.0200    0.0000 O   0  0
    5.1350    0.4450    0.0000 O   0  0
    4.2530    2.9860    0.0000 O   0  0
    8.5830   -1.0940    0.0000 O   0  0
    2.5370   -0.0550    0.0000 O   0  0
    6.0530    2.9930    0.0000 O   0  0
    2.5370    1.9450    0.0000 O   0  0
    3.4490   -4.7980    0.0000 O   0  0
    4.9010   -5.6360    0.0000 O   0  0
    8.5990   -5.5550    0.0000 O   0  0
   10.3310   -2.5550    0.0000 O   0  0
   10.3310   -4.5550    0.0000 O   0  0
    6.0010   -1.0550    0.0000 C   0  0  1  0  0  0
    6.8670   -1.5550    0.0000 C   0  0  1  0  0  0
    5.1350   -1.5550    0.0000 C   0  0  1  0  0  0
    6.8670   -2.5550    0.0000 C   0  0  1  0  0  0
    5.1350   -2.5550    0.0000 C   0  0
    6.0010   -3.0550    0.0000 C   0  0
    6.2100   -0.0830    0.0000 C   0  0
    7.6040   -0.8880    0.0000 C   0  0
    4.2690   -0.0550    0.0000 C   0  0  2  0  0  0
    7.7330   -3.0550    0.0000 C   0  0
    3.4030    0.4450    0.0000 C   0  0  1  0  0  0
    4.2690    1.9450    0.0000 C   0  0  1  0  0  0
    3.4030    1.4450    0.0000 C   0  0  2  0  0  0
    5.1350    1.4450    0.0000 C   0  0  1  0  0  0
    4.2250   -3.0620    0.0000 C   0  0
    6.0170   -4.0960    0.0000 C   0  0
    4.2170   -4.1040    0.0000 C   0  0
    5.1190   -4.6240    0.0000 C   0  0
    6.0450    1.9520    0.0000 C   0  0
    8.5990   -2.5550    0.0000 C   0  0
    7.7330   -4.0550    0.0000 C   0  0
    5.1510    3.5140    0.0000 C   0  0  1  0  0  0
    8.5990   -4.5550    0.0000 C   0  0
    9.4650   -3.0550    0.0000 C   0  0
    3.8710   -5.7440    0.0000 C   0  0
    9.4650   -4.0550    0.0000 C   0  0
    5.1470    4.5140    0.0000 C   0  0
    5.9540    5.1050    0.0000 C   0  0
    5.6410    6.0550    0.0000 C   0  0
    4.6410    6.0510    0.0000 C   0  0
    7.7330   -6.0550    0.0000 C   0  0
   11.1970   -3.0550    0.0000 C   0  0
    5.3140   -0.5540    0.0000 H   0  0
    7.6440   -1.9000    0.0000 H   0  0
    5.1350   -0.9350    0.0000 H   0  0
    7.4040   -2.2450    0.0000 H   0  0
    6.2110    0.5370    0.0000 H   0  0
    5.5940   -0.0170    0.0000 H   0  0
    3.7320   -0.3650    0.0000 H   0  0
    2.8660    0.7550    0.0000 H   0  0
    5.0020    2.3760    0.0000 H   0  0
    3.4030    2.0650    0.0000 H   0  0
    5.8680    1.0140    0.0000 H   0  0
    3.6920   -2.7460    0.0000 H   0  0
    6.5580   -4.4000    0.0000 H   0  0
    6.2500    1.3670    0.0000 H   0  0
    6.6570    2.0530    0.0000 H   0  0
    8.5990   -1.9350    0.0000 H   0  0
    7.1960   -4.3650    0.0000 H   0  0
    4.4120    3.9350    0.0000 H   0  0
    2.0000    0.2550    0.0000 H   0  0
    2.5370    2.5650    0.0000 H   0  0
    3.2820   -5.9360    0.0000 H   0  0
    4.0000   -6.3500    0.0000 H   0  0
    6.5440    4.9160    0.0000 H   0  0
   10.3310   -5.1750    0.0000 H   0  0
    6.0040    6.5580    0.0000 H   0  0
    4.2750    6.5510    0.0000 H   0  0
    7.4230   -5.5180    0.0000 H   0  0
    7.1960   -6.3650    0.0000 H   0  0
    8.0430   -6.5920    0.0000 H   0  0
   10.8870   -3.5920    0.0000 H   0  0
   11.7340   -3.3650    0.0000 H   0  0
   11.5070   -2.5180    0.0000 H   0  0
  1 41  1  0
  1 44  1  0
 17  2  1  1
 23  2  1  1
  3 21  1  0
  3 22  1  0
  4 23  1  0
  4 28  1  0
  5 26  1  0
  5 36  1  0
  6 22  2  0
 25  7  1  6
  7 65  1  0
  8 33  1  0
  8 36  1  0
 27  9  1  1
  9 66  1  0
 10 31  1  0
 10 39  1  0
 11 32  1  0
 11 39  1  0
 12 37  1  0
 12 45  1  0
 13 38  1  0
 13 46  1  0
 14 40  1  0
 14 70  1  0
 15 16  1  0
 15 17  1  0
 15 21  1  0
 15 47  1  6
 16 18  1  0
 16 22  1  0
 16 48  1  1
 17 19  1  0
 17 49  1  6
 18 20  1  0
 18 24  1  6
 18 50  1  1
 19 20  1  0
 19 29  2  0
 20 30  2  0
 21 51  1  0
 21 52  1  0
 23 25  1  0
 23 53  1  6
 24 34  1  0
 24 35  2  0
 25 27  1  0
 25 54  1  1
 26 27  1  0
 26 28  1  0
 26 55  1  1
 27 56  1  6
 28 33  1  0
 28 57  1  6
 29 31  1  0
 29 58  1  0
 30 32  1  0
 30 59  1  0
 31 32  2  0
 33 60  1  0
 33 61  1  0
 34 38  2  0
 34 62  1  0
 35 37  1  0
 35 63  1  0
 36 41  1  6
 36 64  1  1
 37 40  2  0
 38 40  1  0
 39 67  1  0
 39 68  1  0
 41 42  2  0
 42 43  1  0
 42 69  1  0
 43 44  2  0
 43 71  1  0
 44 72  1  0
 45 73  1  0
 45 74  1  0
 45 75  1  0
 46 76  1  0
 46 77  1  0
 46 78  1  0
M  END
> <Name>
452548

> <PUBCHEM_COMPOUND_CID>
452548

> <Toxicity>
1

> <Data Set>
TestSet

$$$$
464205
  SciTegic12242523262D

 33 34  0  0  1  0            999 V2000
    7.5670   -2.6500    0.0000 P   0  0
    6.2780   -1.4930    0.0000 O   0  0
    7.8780   -3.6010    0.0000 O   0  0
    8.5180   -2.3400    0.0000 O   0  0
    6.6170   -2.9610    0.0000 O   0  0
    4.6780    0.6140    0.0000 N   0  0
    4.6780    2.2230    0.0000 N   0  0
    2.8660    0.4190    0.0000 N   0  0
    2.0000    1.9190    0.0000 N   0  0
    2.8660    3.4190    0.0000 N   0  0
    5.9670   -0.5430    0.0000 C   0  0  1  0  0  0
    4.9890   -0.3370    0.0000 C   0  0
    3.7320    0.9190    0.0000 C   0  0
    6.6350    0.2010    0.0000 C   0  0
    3.7320    1.9190    0.0000 C   0  0
    5.2620    1.4190    0.0000 C   0  0
    7.2570   -1.7000    0.0000 C   0  0
    2.8660    2.4190    0.0000 C   0  0
    2.0000    0.9190    0.0000 C   0  0
    5.5530   -1.0040    0.0000 H   0  0
    4.3750   -0.4240    0.0000 H   0  0
    4.9680   -0.9560    0.0000 H   0  0
    7.0970   -0.2130    0.0000 H   0  0
    7.0490    0.6630    0.0000 H   0  0
    6.1740    0.6150    0.0000 H   0  0
    5.8820    1.4190    0.0000 H   0  0
    7.8700   -1.6120    0.0000 H   0  0
    7.2770   -1.0800    0.0000 H   0  0
    1.4630    0.6090    0.0000 H   0  0
    2.3290    3.7290    0.0000 H   0  0
    3.4030    3.7290    0.0000 H   0  0
    8.4850   -3.7290    0.0000 H   0  0
    8.6460   -1.7330    0.0000 H   0  0
  1  3  1  0
  1  4  1  0
  1  5  2  0
  1 17  1  0
  2 11  1  0
  2 17  1  0
  3 32  1  0
  4 33  1  0
  6 12  1  0
  6 13  1  0
  6 16  1  0
  7 15  1  0
  7 16  2  0
  8 13  1  0
  8 19  2  0
  9 18  2  0
  9 19  1  0
 10 18  1  0
 10 30  1  0
 10 31  1  0
 11 12  1  1
 11 14  1  0
 11 20  1  6
 12 21  1  0
 12 22  1  0
 13 15  2  0
 14 23  1  0
 14 24  1  0
 14 25  1  0
 15 18  1  0
 16 26  1  0
 17 27  1  0
 17 28  1  0
 19 29  1  0
M  END
> <Name>
464205

> <PUBCHEM_COMPOUND_CID>
464205

> <Toxicity>
0

> <Data Set>
TrainingSet

$$$$
5481350
  SciTegic12242523262D

 65 66  0  0  1  0            999 V2000
    7.5670   -0.9790    0.0000 P   0  0
    6.2780    0.1780    0.0000 O   0  0
    7.8780   -1.9300    0.0000 O   0  0
    8.5180   -0.6680    0.0000 O   0  0
    6.6170   -1.2900    0.0000 O   0  0
    9.1670   -3.0860    0.0000 O   0  0
    9.6740    0.6210    0.0000 O   0  0
   10.4560   -4.2430    0.0000 O   0  0
   10.8310    1.9100    0.0000 O   0  0
   10.8130   -2.5480    0.0000 O   0  0
    9.1360    2.2670    0.0000 O   0  0
    4.6780    2.2850    0.0000 N   0  0
    4.6780    3.8940    0.0000 N   0  0
    2.8660    2.0900    0.0000 N   0  0
    2.0000    3.5900    0.0000 N   0  0
    2.8660    5.0900    0.0000 N   0  0
    5.9670    1.1280    0.0000 C   0  0  1  0  0  0
    4.9890    1.3340    0.0000 C   0  0
    6.6350    1.8730    0.0000 C   0  0
    3.7320    2.5900    0.0000 C   0  0
    7.2570   -0.0280    0.0000 C   0  0
    5.2620    3.0900    0.0000 C   0  0
    3.7320    3.5900    0.0000 C   0  0
    2.8660    4.0900    0.0000 C   0  0
    2.0000    2.5900    0.0000 C   0  0
    8.8560   -2.1360    0.0000 C   0  0
    8.7240    0.3100    0.0000 C   0  0
   11.4350   -4.4490    0.0000 C   0  0
   11.0380    2.8880    0.0000 C   0  0
   10.1460   -3.2920    0.0000 C   0  0
    9.8810    1.5990    0.0000 C   0  0
   11.7450   -5.4000    0.0000 C   0  0
   12.1030   -3.7050    0.0000 C   0  0
   11.9880    3.1990    0.0000 C   0  0
   10.2930    3.5560    0.0000 C   0  0
    5.5530    0.6670    0.0000 H   0  0
    4.3750    1.2470    0.0000 H   0  0
    4.9680    0.7150    0.0000 H   0  0
    7.0970    1.4580    0.0000 H   0  0
    7.0490    2.3340    0.0000 H   0  0
    6.1740    2.2870    0.0000 H   0  0
    7.8700    0.0590    0.0000 H   0  0
    7.2770    0.5910    0.0000 H   0  0
    5.8820    3.0900    0.0000 H   0  0
    1.4630    2.2800    0.0000 H   0  0
    9.4700   -2.0480    0.0000 H   0  0
    8.8770   -1.5160    0.0000 H   0  0
    8.6370    0.9240    0.0000 H   0  0
    8.1040    0.3310    0.0000 H   0  0
    2.3290    5.4000    0.0000 H   0  0
    3.4030    5.4000    0.0000 H   0  0
   11.0210   -4.9110    0.0000 H   0  0
   11.4990    2.4740    0.0000 H   0  0
   11.1560   -5.5920    0.0000 H   0  0
   11.9380   -5.9890    0.0000 H   0  0
   12.3350   -5.2070    0.0000 H   0  0
   12.5640   -4.1190    0.0000 H   0  0
   12.5170   -3.2430    0.0000 H   0  0
   11.6410   -3.2910    0.0000 H   0  0
   12.1810    2.6100    0.0000 H   0  0
   12.5770    3.3920    0.0000 H   0  0
   11.7950    3.7880    0.0000 H   0  0
   10.7070    4.0180    0.0000 H   0  0
    9.8320    3.9700    0.0000 H   0  0
    9.8790    3.0950    0.0000 H   0  0
  1  3  1  0
  1  4  1  0
  1  5  2  0
  1 21  1  0
  2 17  1  0
  2 21  1  0
  3 26  1  0
  4 27  1  0
  6 26  1  0
  6 30  1  0
  7 27  1  0
  7 31  1  0
  8 28  1  0
  8 30  1  0
  9 29  1  0
  9 31  1  0
 10 30  2  0
 11 31  2  0
 12 18  1  0
 12 20  1  0
 12 22  1  0
 13 22  2  0
 13 23  1  0
 14 20  1  0
 14 25  2  0
 15 24  2  0
 15 25  1  0
 16 24  1  0
 16 50  1  0
 16 51  1  0
 17 18  1  1
 17 19  1  0
 17 36  1  6
 18 37  1  0
 18 38  1  0
 19 39  1  0
 19 40  1  0
 19 41  1  0
 20 23  2  0
 21 42  1  0
 21 43  1  0
 22 44  1  0
 23 24  1  0
 25 45  1  0
 26 46  1  0
 26 47  1  0
 27 48  1  0
 27 49  1  0
 28 32  1  0
 28 33  1  0
 28 52  1  0
 29 34  1  0
 29 35  1  0
 29 53  1  0
 32 54  1  0
 32 55  1  0
 32 56  1  0
 33 57  1  0
 33 58  1  0
 33 59  1  0
 34 60  1  0
 34 61  1  0
 34 62  1  0
 35 63  1  0
 35 64  1  0
 35 65  1  0
M  END
> <Name>
5481350

> <PUBCHEM_COMPOUND_CID>
5481350

> <Toxicity>
0

> <Data Set>
TrainingSet

$$$$
5401
  SciTegic12242523262D

 53 56  0  0  1  0            999 V2000
   12.5080    1.8120    0.0000 O   0  0
   10.7280    2.9050    0.0000 O   0  0
    2.8680    0.4290    0.0000 O   0  0
    2.8680   -1.6190    0.0000 O   0  0
    9.8620    1.4050    0.0000 N   0  0
    8.1300    0.4050    0.0000 N   0  0
    6.3980    0.4050    0.0000 N   0  0
    7.2640   -1.0950    0.0000 N   0  0
    6.3980   -2.5950    0.0000 N   0  0
   11.5940    1.4050    0.0000 C   0  0
    8.9960    1.9050    0.0000 C   0  0
    9.8620    0.4050    0.0000 C   0  0
    8.1300    1.4050    0.0000 C   0  0
    8.9960   -0.0950    0.0000 C   0  0
   11.6990    0.4100    0.0000 C   0  0
   10.7280    1.9050    0.0000 C   0  0
   12.6770    0.2030    0.0000 C   0  0
   13.1770    1.0690    0.0000 C   0  0
    7.2640   -0.0950    0.0000 C   0  0
    5.5320   -0.0950    0.0000 C   0  0
    5.5320   -1.0950    0.0000 C   0  0
    6.3980   -1.5950    0.0000 C   0  0
    4.6380    0.4400    0.0000 C   0  0
    4.6380   -1.6300    0.0000 C   0  0
    3.7320   -0.0740    0.0000 C   0  0
    3.7320   -1.1160    0.0000 C   0  0
    2.8720    1.4290    0.0000 C   0  0
    2.0000   -1.1220    0.0000 C   0  0
   11.6270    2.0240    0.0000 H   0  0
    9.3950    2.3800    0.0000 H   0  0
    8.5980    2.3800    0.0000 H   0  0
   10.0740   -0.1780    0.0000 H   0  0
   10.4730    0.5130    0.0000 H   0  0
    7.9180    1.9880    0.0000 H   0  0
    7.5200    1.2970    0.0000 H   0  0
    8.5980   -0.5700    0.0000 H   0  0
    9.3950   -0.5700    0.0000 H   0  0
   11.0790    0.4100    0.0000 H   0  0
   11.6340   -0.2060    0.0000 H   0  0
   12.4850   -0.3870    0.0000 H   0  0
   13.2430   -0.0500    0.0000 H   0  0
   13.6780    0.7040    0.0000 H   0  0
   13.5920    1.5290    0.0000 H   0  0
    4.6450    1.0600    0.0000 H   0  0
    4.6450   -2.2500    0.0000 H   0  0
    6.9350   -2.9050    0.0000 H   0  0
    5.8610   -2.9050    0.0000 H   0  0
    3.4920    1.4270    0.0000 H   0  0
    2.8740    2.0490    0.0000 H   0  0
    2.2520    1.4320    0.0000 H   0  0
    2.3080   -0.5840    0.0000 H   0  0
    1.4620   -0.8150    0.0000 H   0  0
    1.6920   -1.6610    0.0000 H   0  0
  1 10  1  0
  1 18  1  0
  2 16  2  0
  3 25  1  0
  3 27  1  0
  4 26  1  0
  4 28  1  0
  5 11  1  0
  5 12  1  0
  5 16  1  0
  6 13  1  0
  6 14  1  0
  6 19  1  0
  7 19  2  0
  7 20  1  0
  8 19  1  0
  8 22  2  0
  9 22  1  0
  9 46  1  0
  9 47  1  0
 10 15  1  0
 10 16  1  0
 10 29  1  0
 11 13  1  0
 11 30  1  0
 11 31  1  0
 12 14  1  0
 12 32  1  0
 12 33  1  0
 13 34  1  0
 13 35  1  0
 14 36  1  0
 14 37  1  0
 15 17  1  0
 15 38  1  0
 15 39  1  0
 17 18  1  0
 17 40  1  0
 17 41  1  0
 18 42  1  0
 18 43  1  0
 20 21  2  0
 20 23  1  0
 21 22  1  0
 21 24  1  0
 23 25  2  0
 23 44  1  0
 24 26  2  0
 24 45  1  0
 25 26  1  0
 27 48  1  0
 27 49  1  0
 27 50  1  0
 28 51  1  0
 28 52  1  0
 28 53  1  0
M  END
> <Name>
5401

> <PUBCHEM_COMPOUND_CID>
5401

> <Toxicity>
1

> <Data Set>
TrainingSet

$$$$
5403
  SciTegic12242523262D

 35 35  0  0  1  0            999 V2000
    2.8660    0.8770    0.0000 O   0  0
    2.0000   -2.6230    0.0000 O   0  0
    5.4640   -2.6230    0.0000 O   0  0
    4.5980    1.8770    0.0000 N   0  0
    5.4640    2.3770    0.0000 C   0  0
    4.5980    0.8770    0.0000 C   0  0
    3.7320    0.3770    0.0000 C   0  0
    6.3300    2.8770    0.0000 C   0  0
    4.9640    3.2430    0.0000 C   0  0
    5.9640    1.5110    0.0000 C   0  0
    3.7320   -0.6230    0.0000 C   0  0
    4.5980   -1.1230    0.0000 C   0  0
    2.8660   -1.1230    0.0000 C   0  0
    2.8660   -2.1230    0.0000 C   0  0
    4.5980   -2.1230    0.0000 C   0  0
    3.7320   -2.6230    0.0000 C   0  0
    4.0610    2.1870    0.0000 H   0  0
    4.8100    0.2940    0.0000 H   0  0
    5.2090    0.9850    0.0000 H   0  0
    3.7320    0.9970    0.0000 H   0  0
    6.6400    2.3400    0.0000 H   0  0
    6.8670    3.1870    0.0000 H   0  0
    6.0200    3.4140    0.0000 H   0  0
    5.5010    3.5530    0.0000 H   0  0
    4.6540    3.7800    0.0000 H   0  0
    4.4270    2.9330    0.0000 H   0  0
    5.4270    1.2010    0.0000 H   0  0
    6.2740    0.9740    0.0000 H   0  0
    6.5010    1.8210    0.0000 H   0  0
    5.1350   -0.8130    0.0000 H   0  0
    2.3290   -0.8130    0.0000 H   0  0
    2.8660    1.4970    0.0000 H   0  0
    3.7320   -3.2430    0.0000 H   0  0
    2.0000   -3.2430    0.0000 H   0  0
    5.4640   -3.2430    0.0000 H   0  0
  1  7  1  0
  1 32  1  0
  2 14  1  0
  2 34  1  0
  3 15  1  0
  3 35  1  0
  4  5  1  0
  4  6  1  0
  4 17  1  0
  5  8  1  0
  5  9  1  0
  5 10  1  0
  6  7  1  0
  6 18  1  0
  6 19  1  0
  7 11  1  0
  7 20  1  0
  8 21  1  0
  8 22  1  0
  8 23  1  0
  9 24  1  0
  9 25  1  0
  9 26  1  0
 10 27  1  0
 10 28  1  0
 10 29  1  0
 11 12  1  0
 11 13  2  0
 12 15  2  0
 12 30  1  0
 13 14  1  0
 13 31  1  0
 14 16  2  0
 15 16  1  0
 16 33  1  0
M  END
> <Name>
5403

> <PUBCHEM_COMPOUND_CID>
5403

> <Toxicity>
0

> <Data Set>
TrainingSet

$$$$
54684141
  SciTegic12242523262D

 28 28  0  0  0  0            999 V2000
    5.1350    4.0000    0.0000 F   0  0
    6.1350    3.0000    0.0000 F   0  0
    4.1350    3.0000    0.0000 F   0  0
    3.4030   -1.0000    0.0000 O   0  0
    2.5370   -2.5000    0.0000 O   0  0
    5.1350   -1.0000    0.0000 N   0  0
    6.0010   -3.5000    0.0000 N   0  0
    5.1350    0.0000    0.0000 C   0  0
    5.1350    2.0000    0.0000 C   0  0
    4.2690    0.5000    0.0000 C   0  0
    6.0010    0.5000    0.0000 C   0  0
    4.2690    1.5000    0.0000 C   0  0
    6.0010    1.5000    0.0000 C   0  0
    5.1350    3.0000    0.0000 C   0  0
    4.2690   -1.5000    0.0000 C   0  0
    4.2690   -2.5000    0.0000 C   0  0
    3.4030   -3.0000    0.0000 C   0  0
    3.4030   -4.0000    0.0000 C   0  0
    5.1350   -3.0000    0.0000 C   0  0
    3.7320    0.1900    0.0000 H   0  0
    6.5380    0.1900    0.0000 H   0  0
    3.7320    1.8100    0.0000 H   0  0
    6.5380    1.8100    0.0000 H   0  0
    5.6720   -1.3100    0.0000 H   0  0
    2.7830   -4.0000    0.0000 H   0  0
    3.4030   -4.6200    0.0000 H   0  0
    4.0230   -4.0000    0.0000 H   0  0
    2.0000   -2.8100    0.0000 H   0  0
  1 14  1  0
  2 14  1  0
  3 14  1  0
  4 15  2  0
  5 17  1  0
  5 28  1  0
  6  8  1  0
  6 15  1  0
  6 24  1  0
  7 19  3  0
  8 10  2  0
  8 11  1  0
  9 12  2  0
  9 13  1  0
  9 14  1  0
 10 12  1  0
 10 20  1  0
 11 13  2  0
 11 21  1  0
 12 22  1  0
 13 23  1  0
 15 16  1  0
 16 17  2  0
 16 19  1  0
 17 18  1  0
 18 25  1  0
 18 26  1  0
 18 27  1  0
M  END
> <Name>
54684141

> <PUBCHEM_COMPOUND_CID>
54684141

> <Toxicity>
1

> <Data Set>
TrainingSet

$$$$
6013
  SciTegic12242523262D

 49 52  0  0  1  0            999 V2000
    8.6500    2.1130    0.0000 O   0  0
    2.0000   -2.1950    0.0000 O   0  0
    7.3930   -0.1420    0.0000 C   0  0  2  0  0  0
    7.3930    0.8580    0.0000 C   0  0  2  0  0  0
    6.5270   -0.6420    0.0000 C   0  0  1  0  0  0
    5.6610   -0.1420    0.0000 C   0  0  1  0  0  0
    4.7510   -0.6490    0.0000 C   0  0  2  0  0  0
    6.5270    1.3580    0.0000 C   0  0
    5.6610    0.8580    0.0000 C   0  0
    8.3390    1.1620    0.0000 C   0  0  2  0  0  0
    8.3390   -0.4470    0.0000 C   0  0
    6.5430   -1.6840    0.0000 C   0  0
    8.9230    0.3580    0.0000 C   0  0
    4.7430   -1.6910    0.0000 C   0  0
    5.6450   -2.2120    0.0000 C   0  0
    7.3930    1.8580    0.0000 C   0  0
    3.8240   -0.0850    0.0000 C   0  0
    4.7590    0.3510    0.0000 C   0  0
    2.8760   -0.6130    0.0000 C   0  0
    3.8080   -2.2410    0.0000 C   0  0
    2.8680   -1.6980    0.0000 C   0  0
    7.4830   -0.9880    0.0000 H   0  0
    7.2660   -1.0620    0.0000 H   0  0
    6.3970    0.2820    0.0000 H   0  0
    6.9260    1.8320    0.0000 H   0  0
    6.1280    1.8320    0.0000 H   0  0
    5.4490    1.4400    0.0000 H   0  0
    5.0500    0.7500    0.0000 H   0  0
    7.9020    1.6020    0.0000 H   0  0
    8.0880   -1.0140    0.0000 H   0  0
    8.8770   -0.7560    0.0000 H   0  0
    6.7610   -2.2640    0.0000 H   0  0
    7.1520   -1.5680    0.0000 H   0  0
    9.3840   -0.0570    0.0000 H   0  0
    9.3840    0.7720    0.0000 H   0  0
    5.2480   -2.6880    0.0000 H   0  0
    6.0460   -2.6850    0.0000 H   0  0
    8.0130    1.8580    0.0000 H   0  0
    7.3930    2.4780    0.0000 H   0  0
    6.7730    1.8580    0.0000 H   0  0
    4.2320    0.3810    0.0000 H   0  0
    3.4340    0.3970    0.0000 H   0  0
    5.3790    0.3460    0.0000 H   0  0
    4.7640    0.9710    0.0000 H   0  0
    4.1390    0.3550    0.0000 H   0  0
    2.6720   -0.0280    0.0000 H   0  0
    2.2650   -0.7150    0.0000 H   0  0
    3.8100   -2.8610    0.0000 H   0  0
    9.2570    2.2410    0.0000 H   0  0
 10  1  1  1
  1 49  1  0
  2 21  2  0
  3  4  1  0
  3  5  1  0
  3 11  1  0
  3 22  1  6
  4  8  1  0
  4 10  1  0
  4 16  1  1
  5  6  1  0
  5 12  1  0
  5 23  1  1
  6  7  1  0
  6  9  1  0
  6 24  1  6
  7 14  1  0
  7 17  1  0
  7 18  1  1
  8  9  1  0
  8 25  1  0
  8 26  1  0
  9 27  1  0
  9 28  1  0
 10 13  1  0
 10 29  1  6
 11 13  1  0
 11 30  1  0
 11 31  1  0
 12 15  1  0
 12 32  1  0
 12 33  1  0
 13 34  1  0
 13 35  1  0
 14 15  1  0
 14 20  2  0
 15 36  1  0
 15 37  1  0
 16 38  1  0
 16 39  1  0
 16 40  1  0
 17 19  1  0
 17 41  1  0
 17 42  1  0
 18 43  1  0
 18 44  1  0
 18 45  1  0
 19 21  1  0
 19 46  1  0
 19 47  1  0
 20 21  1  0
 20 48  1  0
M  END
> <Name>
6013

> <PUBCHEM_COMPOUND_CID>
6013

> <Toxicity>
1

> <Data Set>
TestSet

$$$$
1130
  SciTegic12242523262D

 35 36  0  0  0  0            999 V2000
    2.3090    1.0300    0.0000 S   0  0
    4.0780    3.5620    0.0000 O   0  0
    2.8090   -0.5080    0.0000 N   0  3
    4.5410   -3.5080    0.0000 N   0  0
    5.4070   -2.0080    0.0000 N   0  0
    2.8090   -3.5080    0.0000 N   0  0
    3.6180    0.0790    0.0000 C   0  0
    2.8090   -1.5080    0.0000 C   0  0
    3.3090    1.0300    0.0000 C   0  0
    3.8970    1.8400    0.0000 C   0  0
    3.6750   -2.0080    0.0000 C   0  0
    2.0000    0.0790    0.0000 C   0  0
    4.5690   -0.2300    0.0000 C   0  0
    3.4900    2.7530    0.0000 C   0  0
    3.6750   -3.0080    0.0000 C   0  0
    4.5410   -1.5080    0.0000 C   0  0
    5.4070   -3.0080    0.0000 C   0  0
    6.2730   -3.5080    0.0000 C   0  0
    2.1980   -1.4010    0.0000 H   0  0
    2.5970   -2.0910    0.0000 H   0  0
    4.3280    1.3940    0.0000 H   0  0
    4.4110    2.1860    0.0000 H   0  0
    1.4100   -0.1120    0.0000 H   0  0
    4.3780   -0.8190    0.0000 H   0  0
    5.1590   -0.4210    0.0000 H   0  0
    4.7610    0.3600    0.0000 H   0  0
    3.0590    3.1990    0.0000 H   0  0
    2.9760    2.4060    0.0000 H   0  0
    4.5410   -0.8880    0.0000 H   0  0
    2.8090   -4.1280    0.0000 H   0  0
    2.2720   -3.1980    0.0000 H   0  0
    3.8260    4.1280    0.0000 H   0  0
    5.9630   -4.0450    0.0000 H   0  0
    6.8100   -3.8180    0.0000 H   0  0
    6.5830   -2.9720    0.0000 H   0  0
  1  9  1  0
  1 12  1  0
  2 14  1  0
  2 32  1  0
  3  7  1  0
  3  8  1  0
  3 12  2  0
  4 15  2  0
  4 17  1  0
  5 16  1  0
  5 17  2  0
  6 15  1  0
  6 30  1  0
  6 31  1  0
  7  9  2  0
  7 13  1  0
  8 11  1  0
  8 19  1  0
  8 20  1  0
  9 10  1  0
 10 14  1  0
 10 21  1  0
 10 22  1  0
 11 15  1  0
 11 16  2  0
 12 23  1  0
 13 24  1  0
 13 25  1  0
 13 26  1  0
 14 27  1  0
 14 28  1  0
 16 29  1  0
 17 18  1  0
 18 33  1  0
 18 34  1  0
 18 35  1  0
M  CHG  1   3   1
M  END
> <Name>
1130

> <PUBCHEM_COMPOUND_CID>
1130

> <Toxicity>
0

> <Data Set>
TrainingSet

$$$$
5452
  SciTegic12242523262D

 51 54  0  0  1  0            999 V2000
    4.6660   -3.2330    0.0000 S   0  0
    8.1960   -1.2080    0.0000 S   0  0
    2.9340    1.7670    0.0000 N   0  0
    4.6660   -1.2330    0.0000 N   0  0
    3.8000    1.2670    0.0000 C   0  0
    4.6660    1.7670    0.0000 C   0  0
    3.8000    0.2670    0.0000 C   0  0
    4.6660    2.7670    0.0000 C   0  0
    2.9340    2.7670    0.0000 C   0  0
    3.8000    3.2670    0.0000 C   0  0
    4.6660   -0.2330    0.0000 C   0  0
    2.0680    1.2670    0.0000 C   0  0
    5.5320   -1.7330    0.0000 C   0  0
    3.8000   -1.7330    0.0000 C   0  0
    5.5320   -2.7330    0.0000 C   0  0
    3.8000   -2.7330    0.0000 C   0  0
    6.4260   -1.1980    0.0000 C   0  0
    2.9060   -1.1980    0.0000 C   0  0
    6.4260   -3.2670    0.0000 C   0  0
    2.9060   -3.2670    0.0000 C   0  0
    7.3320   -1.7120    0.0000 C   0  0
    2.0000   -1.7120    0.0000 C   0  0
    7.3320   -2.7540    0.0000 C   0  0
    2.0000   -2.7540    0.0000 C   0  0
    9.0640   -1.7050    0.0000 C   0  0
    3.2630    0.9570    0.0000 H   0  0
    4.8780    1.1850    0.0000 H   0  0
    5.2770    1.8750    0.0000 H   0  0
    3.1890    0.3750    0.0000 H   0  0
    3.5880   -0.3150    0.0000 H   0  0
    5.2770    2.6600    0.0000 H   0  0
    4.8780    3.3500    0.0000 H   0  0
    2.7220    3.3500    0.0000 H   0  0
    2.3230    2.6600    0.0000 H   0  0
    4.1980    3.7420    0.0000 H   0  0
    3.4020    3.7420    0.0000 H   0  0
    5.2770   -0.3400    0.0000 H   0  0
    4.8780    0.3500    0.0000 H   0  0
    1.7580    1.8040    0.0000 H   0  0
    1.5310    0.9570    0.0000 H   0  0
    2.3780    0.7300    0.0000 H   0  0
    6.4190   -0.5780    0.0000 H   0  0
    2.9130   -0.5780    0.0000 H   0  0
    6.4190   -3.8870    0.0000 H   0  0
    2.9130   -3.8870    0.0000 H   0  0
    1.4640   -1.4000    0.0000 H   0  0
    7.8680   -3.0660    0.0000 H   0  0
    1.4640   -3.0660    0.0000 H   0  0
    8.7560   -2.2430    0.0000 H   0  0
    9.6020   -2.0130    0.0000 H   0  0
    9.3720   -1.1670    0.0000 H   0  0
  1 15  1  0
  1 16  1  0
  2 21  1  0
  2 25  1  0
  3  5  1  0
  3  9  1  0
  3 12  1  0
  4 11  1  0
  4 13  1  0
  4 14  1  0
  5  6  1  0
  5  7  1  0
  5 26  1  0
  6  8  1  0
  6 27  1  0
  6 28  1  0
  7 11  1  0
  7 29  1  0
  7 30  1  0
  8 10  1  0
  8 31  1  0
  8 32  1  0
  9 10  1  0
  9 33  1  0
  9 34  1  0
 10 35  1  0
 10 36  1  0
 11 37  1  0
 11 38  1  0
 12 39  1  0
 12 40  1  0
 12 41  1  0
 13 15  2  0
 13 17  1  0
 14 16  2  0
 14 18  1  0
 15 19  1  0
 16 20  1  0
 17 21  2  0
 17 42  1  0
 18 22  2  0
 18 43  1  0
 19 23  2  0
 19 44  1  0
 20 24  2  0
 20 45  1  0
 21 23  1  0
 22 24  1  0
 22 46  1  0
 23 47  1  0
 24 48  1  0
 25 49  1  0
 25 50  1  0
 25 51  1  0
M  END
> <Name>
5452

> <PUBCHEM_COMPOUND_CID>
5452

> <Toxicity>
1

> <Data Set>
TrainingSet

$$$$
9871419
  SciTegic12242523262D

 64 68  0  0  1  0            999 V2000
    3.7320    1.0080    0.0000 S   0  0
    5.8300   -6.3580    0.0000 F   0  0
    4.0980   -7.3580    0.0000 F   0  0
    7.2820    4.3330    0.0000 O   0  0
    9.3470    1.4810    0.0000 O   0  0
    9.3500    3.6570    0.0000 O   0  0
    8.3160    6.7680    0.0000 O   0  0
    5.4640   -1.9920    0.0000 N   0  0
    7.2760    0.8120    0.0000 N   0  0
    7.8600    0.0080    0.0000 N   0  0
    7.2760   -0.7970    0.0000 N   0  0
    4.5980   -0.4920    0.0000 N   0  0
    5.4640    1.0080    0.0000 N   0  0
    4.0980   -3.3580    0.0000 C   0  0  1  0  0  0
    4.5980   -2.4920    0.0000 C   0  0  1  0  0  0
    3.5980   -2.4920    0.0000 C   0  0
    7.5870    1.7630    0.0000 C   0  0  1  0  0  0
    8.5390    2.0700    0.0000 C   0  0  1  0  0  0
    7.0010    2.5730    0.0000 C   0  0
    7.5900    3.3810    0.0000 C   0  0  1  0  0  0
    8.5400    3.0700    0.0000 C   0  0  1  0  0  0
    4.0980   -4.3580    0.0000 C   0  0
    5.4640   -0.9920    0.0000 C   0  0
    6.3300    0.5080    0.0000 C   0  0
    6.3300   -0.4920    0.0000 C   0  0
    4.9640   -4.8580    0.0000 C   0  0
    3.2320   -4.8580    0.0000 C   0  0
    7.9530    5.0750    0.0000 C   0  0
    4.9640   -5.8580    0.0000 C   0  0
    3.2320   -5.8580    0.0000 C   0  0
    4.5980    0.5080    0.0000 C   0  0
    4.0980   -6.3580    0.0000 C   0  0
    7.6460    6.0260    0.0000 C   0  0
    2.8660    0.5080    0.0000 C   0  0
    2.0000    1.0080    0.0000 C   0  0
    2.0000    2.0080    0.0000 C   0  0
    4.6970   -3.5190    0.0000 H   0  0
    5.0360   -2.9310    0.0000 H   0  0
    3.4900   -1.8820    0.0000 H   0  0
    3.0160   -2.7040    0.0000 H   0  0
    6.9740    1.6670    0.0000 H   0  0
    9.0920    2.3510    0.0000 H   0  0
    6.5410    2.9890    0.0000 H   0  0
    6.5390    2.1590    0.0000 H   0  0
    6.9780    3.4790    0.0000 H   0  0
    8.4440    3.6830    0.0000 H   0  0
    6.0010   -2.3020    0.0000 H   0  0
    5.5010   -4.5480    0.0000 H   0  0
    2.6950   -4.5480    0.0000 H   0  0
    9.9130    1.7320    0.0000 H   0  0
    9.9160    3.4040    0.0000 H   0  0
    8.3340    4.5850    0.0000 H   0  0
    8.5010    5.3650    0.0000 H   0  0
    2.6950   -6.1680    0.0000 H   0  0
    7.2650    6.5160    0.0000 H   0  0
    7.0980    5.7360    0.0000 H   0  0
    2.4680    0.0330    0.0000 H   0  0
    3.2650    0.0330    0.0000 H   0  0
    8.1250    7.3580    0.0000 H   0  0
    1.3890    1.1160    0.0000 H   0  0
    1.7880    0.4250    0.0000 H   0  0
    2.6200    2.0080    0.0000 H   0  0
    2.0000    2.6280    0.0000 H   0  0
    1.3800    2.0080    0.0000 H   0  0
  1 31  1  0
  1 34  1  0
  2 29  1  0
  3 32  1  0
 20  4  1  6
  4 28  1  0
 18  5  1  1
  5 50  1  0
 21  6  1  1
  6 51  1  0
  7 33  1  0
  7 59  1  0
 15  8  1  1
  8 23  1  0
  8 47  1  0
  9 10  1  0
 17  9  1  6
  9 24  1  0
 10 11  2  0
 11 25  1  0
 12 23  2  0
 12 31  1  0
 13 24  1  0
 13 31  2  0
 14 15  1  0
 14 16  1  0
 14 22  1  6
 14 37  1  1
 15 16  1  0
 15 38  1  6
 16 39  1  0
 16 40  1  0
 17 18  1  0
 17 19  1  0
 17 41  1  1
 18 21  1  0
 18 42  1  6
 19 20  1  0
 19 43  1  0
 19 44  1  0
 20 21  1  0
 20 45  1  1
 21 46  1  6
 22 26  2  0
 22 27  1  0
 23 25  1  0
 24 25  2  0
 26 29  1  0
 26 48  1  0
 27 30  2  0
 27 49  1  0
 28 33  1  0
 28 52  1  0
 28 53  1  0
 29 32  2  0
 30 32  1  0
 30 54  1  0
 33 55  1  0
 33 56  1  0
 34 35  1  0
 34 57  1  0
 34 58  1  0
 35 36  1  0
 35 60  1  0
 35 61  1  0
 36 62  1  0
 36 63  1  0
 36 64  1  0
M  END
> <Name>
9871419

> <PUBCHEM_COMPOUND_CID>
9871419

> <Toxicity>
1

> <Data Set>
TrainingSet

$$$$
5472
  SciTegic12242523262D

 31 33  0  0  0  0            999 V2000
    2.8660    1.5000    0.0000 Cl  0  0
    8.1420   -1.3050    0.0000 S   0  0
    5.4640    0.0000    0.0000 N   0  0
    5.4640   -1.0000    0.0000 C   0  0
    6.3300    0.5000    0.0000 C   0  0
    6.3300   -1.5000    0.0000 C   0  0
    7.1960    0.0000    0.0000 C   0  0
    7.1960   -1.0000    0.0000 C   0  0
    4.5980    0.5000    0.0000 C   0  0
    3.7320    0.0000    0.0000 C   0  0
    8.1420    0.3050    0.0000 C   0  0
    8.7260   -0.5000    0.0000 C   0  0
    2.8660    0.5000    0.0000 C   0  0
    3.7320   -1.0000    0.0000 C   0  0
    2.0000    0.0000    0.0000 C   0  0
    2.8660   -1.5000    0.0000 C   0  0
    2.0000   -1.0000    0.0000 C   0  0
    4.8540   -0.8920    0.0000 H   0  0
    5.2520   -1.5830    0.0000 H   0  0
    6.7290    0.9750    0.0000 H   0  0
    5.9320    0.9750    0.0000 H   0  0
    5.9320   -1.9750    0.0000 H   0  0
    6.7290   -1.9750    0.0000 H   0  0
    4.9970    0.9750    0.0000 H   0  0
    4.2000    0.9750    0.0000 H   0  0
    8.3350    0.8940    0.0000 H   0  0
    9.3460   -0.5000    0.0000 H   0  0
    4.2690   -1.3100    0.0000 H   0  0
    1.4630    0.3100    0.0000 H   0  0
    2.8660   -2.1200    0.0000 H   0  0
    1.4630   -1.3100    0.0000 H   0  0
  1 13  1  0
  2  8  1  0
  2 12  1  0
  3  4  1  0
  3  5  1  0
  3  9  1  0
  4  6  1  0
  4 18  1  0
  4 19  1  0
  5  7  1  0
  5 20  1  0
  5 21  1  0
  6  8  1  0
  6 22  1  0
  6 23  1  0
  7  8  2  0
  7 11  1  0
  9 10  1  0
  9 24  1  0
  9 25  1  0
 10 13  2  0
 10 14  1  0
 11 12  2  0
 11 26  1  0
 12 27  1  0
 13 15  1  0
 14 16  2  0
 14 28  1  0
 15 17  2  0
 15 29  1  0
 16 17  1  0
 16 30  1  0
 17 31  1  0
M  END
> <Name>
5472

> <PUBCHEM_COMPOUND_CID>
5472

> <Toxicity>
1

> <Data Set>
TestSet

$$$$
54686904
  SciTegic12242523262D

 81 84  0  0  1  0            999 V2000
    6.0680    1.5970    0.0000 O   0  0
    6.9340    2.0970    0.0000 O   0  0
    4.8430    2.0750    0.0000 O   0  0
    8.6820    2.1320    0.0000 O   0  0
    3.4040   -0.9270    0.0000 O   0  0
   10.5190    2.1750    0.0000 O   0  0
    3.4080    2.1210    0.0000 O   0  0
   13.2110   -0.3540    0.0000 O   0  0
    5.1850   -1.9380    0.0000 N   0  0
   10.5190   -1.9810    0.0000 N   0  0
    2.5360    0.6240    0.0000 N   0  0
   12.3390    1.1430    0.0000 N   0  0
   14.9390    0.6530    0.0000 N   0  0
    6.0680   -0.4030    0.0000 C   0  0  1  0  0  0
    6.0680    0.5970    0.0000 C   0  0  1  0  0  0
    6.9340   -0.9030    0.0000 C   0  0
    7.8000   -0.4030    0.0000 C   0  0  1  0  0  0
    5.1740   -0.9380    0.0000 C   0  0  1  0  0  0
    7.8000    0.5970    0.0000 C   0  0
    6.9340    1.0970    0.0000 C   0  0
    8.6940   -0.9380    0.0000 C   0  0
    5.1740    1.1320    0.0000 C   0  0
    4.2680   -0.4240    0.0000 C   0  0
    9.6000   -0.4240    0.0000 C   0  0
    8.6940    1.1320    0.0000 C   0  0
    4.2680    0.6180    0.0000 C   0  0
    9.6000    0.6180    0.0000 C   0  0
   10.5310   -0.9810    0.0000 C   0  0
    4.3250   -2.4480    0.0000 C   0  0
    6.0570   -2.4280    0.0000 C   0  0
   10.5310    1.1750    0.0000 C   0  0
    3.4040    1.1210    0.0000 C   0  0
   11.4750   -0.4460    0.0000 C   0  0
   11.4750    0.6390    0.0000 C   0  0
   11.3800   -2.4910    0.0000 C   0  0
    9.6480   -2.4710    0.0000 C   0  0
   13.2070    0.6460    0.0000 C   0  0
   14.0710    1.1490    0.0000 C   0  0
   15.8030    1.1560    0.0000 C   0  0
   16.6670    1.6590    0.0000 C   0  0
   16.3060    0.2920    0.0000 C   0  0
   15.3000    2.0200    0.0000 C   0  0
    6.0740   -1.2530    0.0000 H   0  0
    6.5350   -1.3780    0.0000 H   0  0
    7.3320   -1.3780    0.0000 H   0  0
    7.7930   -1.2530    0.0000 H   0  0
    5.7150   -1.2400    0.0000 H   0  0
    8.2890   -1.4080    0.0000 H   0  0
    9.0870   -1.4170    0.0000 H   0  0
    5.6690    2.0720    0.0000 H   0  0
    4.0090   -1.9140    0.0000 H   0  0
    3.7920   -2.7640    0.0000 H   0  0
    4.6410   -2.9810    0.0000 H   0  0
    5.7530   -2.9680    0.0000 H   0  0
    6.5980   -2.7310    0.0000 H   0  0
    6.3610   -1.8870    0.0000 H   0  0
    4.2330    2.1900    0.0000 H   0  0
   12.0100   -0.7580    0.0000 H   0  0
    9.2160    2.4480    0.0000 H   0  0
    2.0000    0.9360    0.0000 H   0  0
    2.5330    0.0040    0.0000 H   0  0
   11.0530    2.4910    0.0000 H   0  0
   12.3360    1.7630    0.0000 H   0  0
   11.0630   -3.0240    0.0000 H   0  0
   11.9130   -2.8070    0.0000 H   0  0
   11.6960   -1.9570    0.0000 H   0  0
    9.3440   -1.9300    0.0000 H   0  0
    9.1070   -2.7740    0.0000 H   0  0
    9.9520   -3.0110    0.0000 H   0  0
   14.4680    1.6260    0.0000 H   0  0
   13.6710    1.6230    0.0000 H   0  0
   14.9410    0.0330    0.0000 H   0  0
   16.9790    1.1240    0.0000 H   0  0
   17.2030    1.9720    0.0000 H   0  0
   16.3550    2.1950    0.0000 H   0  0
   15.7710   -0.0200    0.0000 H   0  0
   16.6180   -0.2440    0.0000 H   0  0
   16.8420    0.6040    0.0000 H   0  0
   15.8350    2.3320    0.0000 H   0  0
   14.9880    2.5560    0.0000 H   0  0
   14.7640    1.7080    0.0000 H   0  0
 15  1  1  6
  1 50  1  0
  2 20  2  0
  3 22  1  0
  3 57  1  0
  4 25  1  0
  4 59  1  0
  5 23  2  0
  6 31  1  0
  6 62  1  0
  7 32  2  0
  8 37  2  0
 18  9  1  6
  9 29  1  0
  9 30  1  0
 10 28  1  0
 10 35  1  0
 10 36  1  0
 11 32  1  0
 11 60  1  0
 11 61  1  0
 12 34  1  0
 12 37  1  0
 12 63  1  0
 13 38  1  0
 13 39  1  0
 13 72  1  0
 14 15  1  0
 14 16  1  0
 14 18  1  0
 14 43  1  6
 15 20  1  0
 15 22  1  0
 16 17  1  0
 16 44  1  0
 16 45  1  0
 17 19  1  0
 17 21  1  0
 17 46  1  6
 18 23  1  0
 18 47  1  1
 19 20  1  0
 19 25  2  0
 21 24  1  0
 21 48  1  0
 21 49  1  0
 22 26  2  0
 23 26  1  0
 24 27  2  0
 24 28  1  0
 25 27  1  0
 26 32  1  0
 27 31  1  0
 28 33  2  0
 29 51  1  0
 29 52  1  0
 29 53  1  0
 30 54  1  0
 30 55  1  0
 30 56  1  0
 31 34  2  0
 33 34  1  0
 33 58  1  0
 35 64  1  0
 35 65  1  0
 35 66  1  0
 36 67  1  0
 36 68  1  0
 36 69  1  0
 37 38  1  0
 38 70  1  0
 38 71  1  0
 39 40  1  0
 39 41  1  0
 39 42  1  0
 40 73  1  0
 40 74  1  0
 40 75  1  0
 41 76  1  0
 41 77  1  0
 41 78  1  0
 42 79  1  0
 42 80  1  0
 42 81  1  0
M  END
> <Name>
54686904

> <PUBCHEM_COMPOUND_CID>
54686904

> <Toxicity>
1

> <Data Set>
TrainingSet

$$$$
33624
  SciTegic12242523262D

 45 46  0  0  1  0            999 V2000
    2.3660   -1.8330    0.0000 S   0  0
    2.8660    2.7060    0.0000 O   0  0
    4.6260   -0.5730    0.0000 O   0  0
    6.5280    0.0450    0.0000 O   0  0
    8.0140   -1.2930    0.0000 N   0  0
    2.8660    0.7060    0.0000 N   0  0
    2.0570   -0.8820    0.0000 N   0  0
    3.3660   -1.8330    0.0000 N   0  0
    8.7580   -1.9620    0.0000 C   0  0
    7.0640   -1.6020    0.0000 C   0  0
    6.3200   -0.9330    0.0000 C   0  0  1  0  0  0
    3.7320    1.2060    0.0000 C   0  0
    2.0000    1.2060    0.0000 C   0  0
    9.5010   -2.6320    0.0000 C   0  0
    9.4270   -1.2190    0.0000 C   0  0
    8.0880   -2.7060    0.0000 C   0  0
    3.7320    2.2060    0.0000 C   0  0
    2.0000    2.2060    0.0000 C   0  0
    5.3690   -1.2420    0.0000 C   0  0
    2.8660   -0.2940    0.0000 C   0  0
    3.6750   -0.8820    0.0000 C   0  0
    8.1430   -0.6870    0.0000 H   0  0
    6.5750   -1.9840    0.0000 H   0  0
    7.3540   -2.1500    0.0000 H   0  0
    5.8600   -0.5180    0.0000 H   0  0
    3.9440    0.6230    0.0000 H   0  0
    4.3430    1.3130    0.0000 H   0  0
    1.3890    1.3130    0.0000 H   0  0
    1.7880    0.6230    0.0000 H   0  0
    9.0860   -3.0920    0.0000 H   0  0
    9.9620   -3.0460    0.0000 H   0  0
    9.9160   -2.1710    0.0000 H   0  0
    9.8880   -1.6340    0.0000 H   0  0
    9.8420   -0.7590    0.0000 H   0  0
    8.9660   -0.8040    0.0000 H   0  0
    7.6280   -2.2910    0.0000 H   0  0
    7.6740   -3.1660    0.0000 H   0  0
    8.5490   -3.1200    0.0000 H   0  0
    4.3430    2.0980    0.0000 H   0  0
    3.9440    2.7880    0.0000 H   0  0
    1.7880    2.7880    0.0000 H   0  0
    1.3890    2.0980    0.0000 H   0  0
    4.8810   -1.6240    0.0000 H   0  0
    5.6600   -1.7900    0.0000 H   0  0
    7.1180    0.2360    0.0000 H   0  0
  1  7  1  0
  1  8  1  0
  2 17  1  0
  2 18  1  0
  3 19  1  0
  3 21  1  0
 11  4  1  1
  4 45  1  0
  5  9  1  0
  5 10  1  0
  5 22  1  0
  6 12  1  0
  6 13  1  0
  6 20  1  0
  7 20  2  0
  8 21  2  0
  9 14  1  0
  9 15  1  0
  9 16  1  0
 10 11  1  0
 10 23  1  0
 10 24  1  0
 11 19  1  0
 11 25  1  6
 12 17  1  0
 12 26  1  0
 12 27  1  0
 13 18  1  0
 13 28  1  0
 13 29  1  0
 14 30  1  0
 14 31  1  0
 14 32  1  0
 15 33  1  0
 15 34  1  0
 15 35  1  0
 16 36  1  0
 16 37  1  0
 16 38  1  0
 17 39  1  0
 17 40  1  0
 18 41  1  0
 18 42  1  0
 19 43  1  0
 19 44  1  0
 20 21  1  0
M  END
> <Name>
33624

> <PUBCHEM_COMPOUND_CID>
33624

> <Toxicity>
0

> <Data Set>
TrainingSet

$$$$
5483
  SciTegic12242523262D

 19 18  0  0  1  0            999 V2000
    7.7330   -0.2500    0.0000 S   0  0
    6.0010   -1.2500    0.0000 O   0  0
    2.5370   -0.2500    0.0000 O   0  0
    3.4030    1.2500    0.0000 O   0  0
    5.1350    0.2500    0.0000 N   0  0
    6.8670    0.2500    0.0000 C   0  0
    6.0010   -0.2500    0.0000 C   0  0
    6.8670    1.2500    0.0000 C   0  0
    4.2690   -0.2500    0.0000 C   0  0
    3.4030    0.2500    0.0000 C   0  0
    7.6030    0.6750    0.0000 H   0  0
    5.1350    0.8700    0.0000 H   0  0
    3.8700   -0.7250    0.0000 H   0  0
    4.6680   -0.7250    0.0000 H   0  0
    7.4870    1.2500    0.0000 H   0  0
    6.8670    1.8700    0.0000 H   0  0
    6.2470    1.2500    0.0000 H   0  0
    8.2700    0.0600    0.0000 H   0  0
    2.0000    0.0600    0.0000 H   0  0
  1  6  1  0
  1 18  1  0
  2  7  2  0
  3 10  1  0
  3 19  1  0
  4 10  2  0
  5  7  1  0
  5  9  1  0
  5 12  1  0
  6  7  1  0
  6  8  1  0
  6 11  1  0
  8 15  1  0
  8 16  1  0
  8 17  1  0
  9 10  1  0
  9 13  1  0
  9 14  1  0
M  END
> <Name>
5483

> <PUBCHEM_COMPOUND_CID>
5483

> <Toxicity>
1

> <Data Set>
TrainingSet

$$$$
5487
  SciTegic12242523262D

 24 26  0  0  0  0            999 V2000
    2.7170   -0.4550    0.0000 Cl  0  0
    6.8450   -1.4550    0.0000 S   0  0
    3.4780    2.0400    0.0000 N   0  0
    4.4490    0.5450    0.0000 N   0  0
    2.6690    0.6390    0.0000 N   0  0
    6.2610   -0.6500    0.0000 N   0  0
    6.2610   -2.2590    0.0000 N   0  0
    2.5000    2.2480    0.0000 C   0  0
    2.0000    1.3820    0.0000 C   0  0
    3.5830    1.0450    0.0000 C   0  0
    4.4490   -0.4550    0.0000 C   0  0
    5.3150   -0.9550    0.0000 C   0  0
    5.3150   -1.9550    0.0000 C   0  0
    3.5830   -0.9550    0.0000 C   0  0
    4.4490   -2.4550    0.0000 C   0  0
    3.5830   -1.9550    0.0000 C   0  0
    2.6920    2.8370    0.0000 H   0  0
    1.9340    2.5000    0.0000 H   0  0
    1.4980    1.7460    0.0000 H   0  0
    1.5850    0.9210    0.0000 H   0  0
    3.9390    2.4550    0.0000 H   0  0
    4.9860    0.8550    0.0000 H   0  0
    4.4490   -3.0750    0.0000 H   0  0
    3.0460   -2.2650    0.0000 H   0  0
  1 14  1  0
  2  6  1  0
  2  7  1  0
  3  8  1  0
  3 10  1  0
  3 21  1  0
  4 10  1  0
  4 11  1  0
  4 22  1  0
  5  9  1  0
  5 10  2  0
  6 12  2  0
  7 13  2  0
  8  9  1  0
  8 17  1  0
  8 18  1  0
  9 19  1  0
  9 20  1  0
 11 12  1  0
 11 14  2  0
 12 13  1  0
 13 15  1  0
 14 16  1  0
 15 16  2  0
 15 23  1  0
 16 24  1  0
M  END
> <Name>
5487

> <PUBCHEM_COMPOUND_CID>
5487

> <Toxicity>
1

> <Data Set>
TrainingSet

$$$$
36294
  SciTegic12242523262D

 69 71  0  0  1  0            999 V2000
    6.8670   -2.2780    0.0000 O   0  0
    5.1350    0.7220    0.0000 O   0  0
    5.1350   -1.2780    0.0000 O   0  0
    5.1350   -2.2780    0.0000 O   0  0
    5.1350    2.4540    0.0000 O   0  0
    6.8670   -4.2780    0.0000 O   0  0
    3.4030   -4.2780    0.0000 O   0  0
    3.1350    4.1860    0.0000 O   0  0
    2.5370   -2.7780    0.0000 O   0  0
    8.5990   -1.2780    0.0000 N   0  0
    7.3670    1.5880    0.0000 N   0  0
    3.1350    0.7220    0.0000 N   0  0
    5.1350   -5.2780    0.0000 N   0  0
    4.6350    5.0520    0.0000 N   0  0
    6.8670   -1.2780    0.0000 C   0  0  2  0  0  0
    6.0010    0.2220    0.0000 C   0  0  1  0  0  0
    6.0010   -0.7780    0.0000 C   0  0  2  0  0  0
    7.7330   -0.7780    0.0000 C   0  0  1  0  0  0
    6.8670    0.7220    0.0000 C   0  0  2  0  0  0
    7.7330    0.2220    0.0000 C   0  0
    6.0010   -2.7780    0.0000 C   0  0  1  0  0  0
    4.6350    1.5880    0.0000 C   0  0  1  0  0  0
    6.0010   -3.7780    0.0000 C   0  0  1  0  0  0
    3.6350    1.5880    0.0000 C   0  0  1  0  0  0
    5.1350   -4.2780    0.0000 C   0  0  2  0  0  0
    4.2690   -3.7780    0.0000 C   0  0  1  0  0  0
    4.2690   -2.7780    0.0000 C   0  0  1  0  0  0
    3.1350    2.4540    0.0000 C   0  0
    3.6350    3.3200    0.0000 C   0  0  1  0  0  0
    4.6350    3.3200    0.0000 C   0  0  1  0  0  0
    3.4030   -2.2780    0.0000 C   0  0
    5.1350    4.1860    0.0000 C   0  0
    7.4040   -1.5880    0.0000 H   0  0
    6.0010    0.8420    0.0000 H   0  0
    6.0010   -1.3980    0.0000 H   0  0
    8.2700   -0.4680    0.0000 H   0  0
    6.4290    1.1600    0.0000 H   0  0
    8.3440    0.1140    0.0000 H   0  0
    7.9450    0.8040    0.0000 H   0  0
    6.0010   -2.1580    0.0000 H   0  0
    4.3250    1.0510    0.0000 H   0  0
    6.5380   -3.4680    0.0000 H   0  0
    3.0150    1.5880    0.0000 H   0  0
    5.6720   -4.5880    0.0000 H   0  0
    3.7320   -3.4680    0.0000 H   0  0
    4.2690   -2.1580    0.0000 H   0  0
    2.6600    2.8520    0.0000 H   0  0
    2.6600    2.0550    0.0000 H   0  0
    9.1360   -0.9680    0.0000 H   0  0
    8.5990   -1.8980    0.0000 H   0  0
    7.9870    1.5880    0.0000 H   0  0
    7.0570    2.1240    0.0000 H   0  0
    3.0150    3.3200    0.0000 H   0  0
    5.2550    3.3200    0.0000 H   0  0
    4.5980   -0.9680    0.0000 H   0  0
    3.8020   -1.8040    0.0000 H   0  0
    3.0040   -1.8040    0.0000 H   0  0
    5.6100    3.7870    0.0000 H   0  0
    5.6100    4.5840    0.0000 H   0  0
    2.5150    0.7220    0.0000 H   0  0
    3.4450    0.1840    0.0000 H   0  0
    4.5980   -5.5880    0.0000 H   0  0
    5.6720   -5.5880    0.0000 H   0  0
    7.4040   -3.9680    0.0000 H   0  0
    3.4030   -4.8980    0.0000 H   0  0
    2.5150    4.1860    0.0000 H   0  0
    4.9450    5.5880    0.0000 H   0  0
    4.0150    5.0520    0.0000 H   0  0
    2.0000   -2.4680    0.0000 H   0  0
 15  1  1  6
 21  1  1  6
 16  2  1  6
 22  2  1  6
 17  3  1  1
  3 55  1  0
  4 21  1  0
  4 27  1  0
  5 22  1  0
  5 30  1  0
 23  6  1  6
  6 64  1  0
 26  7  1  6
  7 65  1  0
 29  8  1  6
  8 66  1  0
  9 31  1  0
  9 69  1  0
 18 10  1  1
 10 49  1  0
 10 50  1  0
 19 11  1  1
 11 51  1  0
 11 52  1  0
 24 12  1  6
 12 60  1  0
 12 61  1  0
 25 13  1  1
 13 62  1  0
 13 63  1  0
 14 32  1  0
 14 67  1  0
 14 68  1  0
 15 17  1  0
 15 18  1  0
 15 33  1  1
 16 17  1  0
 16 19  1  0
 16 34  1  1
 17 35  1  6
 18 20  1  0
 18 36  1  6
 19 20  1  0
 19 37  1  6
 20 38  1  0
 20 39  1  0
 21 23  1  0
 21 40  1  1
 22 24  1  0
 22 41  1  1
 23 25  1  0
 23 42  1  1
 24 28  1  0
 24 43  1  1
 25 26  1  0
 25 44  1  6
 26 27  1  0
 26 45  1  1
 27 31  1  1
 27 46  1  6
 28 29  1  0
 28 47  1  0
 28 48  1  0
 29 30  1  0
 29 53  1  1
 30 32  1  1
 30 54  1  6
 31 56  1  0
 31 57  1  0
 32 58  1  0
 32 59  1  0
M  END
> <Name>
36294

> <PUBCHEM_COMPOUND_CID>
36294

> <Toxicity>
0

> <Data Set>
TrainingSet

$$$$
9926791
  SciTegic12242523262D

 43 45  0  0  1  0            999 V2000
    4.5980   -0.3030    0.0000 O   0  0
    5.4640    1.1970    0.0000 N   0  0
    8.0620    0.6970    0.0000 N   0  0
    7.1960   -0.8030    0.0000 N   0  0
    9.8740   -2.1080    0.0000 N   0  0
    8.0620   -2.3030    0.0000 N   0  0
    2.0000    0.1970    0.0000 N   0  0
    7.1960    1.1970    0.0000 C   0  0  2  0  0  0
    7.1960    2.1970    0.0000 C   0  0  1  0  0  0
    6.3300    2.6970    0.0000 C   0  0
    6.3300    0.6970    0.0000 C   0  0
    5.4640    2.1970    0.0000 C   0  0
    8.0620    2.6970    0.0000 C   0  0
    8.0620   -0.3030    0.0000 C   0  0
    4.5980    0.6970    0.0000 C   0  0
    8.9280    1.1970    0.0000 C   0  0
    8.9280   -0.8030    0.0000 C   0  0
    3.7320    1.1970    0.0000 C   0  0
    8.9280   -1.8030    0.0000 C   0  0
    9.8740   -0.4980    0.0000 C   0  0
    7.1960   -1.8030    0.0000 C   0  0
   10.4580   -1.3030    0.0000 C   0  0
    2.8660    0.6970    0.0000 C   0  0
    7.7330    1.5070    0.0000 H   0  0
    7.1960    2.8170    0.0000 H   0  0
    6.7290    3.1720    0.0000 H   0  0
    5.9320    3.1720    0.0000 H   0  0
    5.9320    0.2220    0.0000 H   0  0
    6.7290    0.2220    0.0000 H   0  0
    5.2520    2.7800    0.0000 H   0  0
    4.8540    2.0890    0.0000 H   0  0
    8.3720    2.1600    0.0000 H   0  0
    8.5990    3.0070    0.0000 H   0  0
    7.7520    3.2340    0.0000 H   0  0
    9.2380    0.6600    0.0000 H   0  0
    9.4650    1.5070    0.0000 H   0  0
    8.6180    1.7340    0.0000 H   0  0
    4.1310    1.6720    0.0000 H   0  0
    3.3340    1.6720    0.0000 H   0  0
   10.0670    0.0910    0.0000 H   0  0
   10.0670   -2.6970    0.0000 H   0  0
    6.6590   -2.1130    0.0000 H   0  0
   11.0780   -1.3030    0.0000 H   0  0
  1 15  2  0
  2 11  1  0
  2 12  1  0
  2 15  1  0
  8  3  1  1
  3 14  1  0
  3 16  1  0
  4 14  1  0
  4 21  2  0
  5 19  1  0
  5 22  1  0
  5 41  1  0
  6 19  2  0
  6 21  1  0
  7 23  3  0
  8  9  1  0
  8 11  1  0
  8 24  1  6
  9 10  1  0
  9 13  1  1
  9 25  1  6
 10 12  1  0
 10 26  1  0
 10 27  1  0
 11 28  1  0
 11 29  1  0
 12 30  1  0
 12 31  1  0
 13 32  1  0
 13 33  1  0
 13 34  1  0
 14 17  2  0
 15 18  1  0
 16 35  1  0
 16 36  1  0
 16 37  1  0
 17 19  1  0
 17 20  1  0
 18 23  1  0
 18 38  1  0
 18 39  1  0
 20 22  2  0
 20 40  1  0
 21 42  1  0
 22 43  1  0
M  END
> <Name>
9926791

> <PUBCHEM_COMPOUND_CID>
9926791

> <Toxicity>
1

> <Data Set>
TrainingSet

$$$$
443894
  SciTegic12242523262D

 57 60  0  0  1  0            999 V2000
   10.3550    3.8290    0.0000 Cl  0  0
    7.1310    4.9030    0.0000 O   0  0
    8.0870    0.4110    0.0000 O   0  0
    5.3770   -3.2840    0.0000 O   0  0
    6.9090    1.6810    0.0000 N   0  0
    4.1990   -2.0140    0.0000 N   0  0
    5.9340    3.7060    0.0000 C   0  0
    5.5000    2.8050    0.0000 C   0  0
    6.9090    3.9280    0.0000 C   0  0  2  0  0  0
    5.9340    1.9040    0.0000 C   0  0
    7.6910    3.3050    0.0000 C   0  0
    7.6910    2.3050    0.0000 C   0  0
    7.1310    0.7060    0.0000 C   0  0
    8.5850    3.8390    0.0000 C   0  0
    8.5850    1.7700    0.0000 C   0  0
    6.3980    0.0260    0.0000 C   0  0
    9.4910    3.3250    0.0000 C   0  0
    9.4910    2.2840    0.0000 C   0  0
    5.4430    0.3210    0.0000 C   0  0
    6.6210   -0.9490    0.0000 C   0  0
    4.7100   -0.3590    0.0000 C   0  0
    4.9320   -1.3340    0.0000 C   0  0
    5.8880   -1.6290    0.0000 C   0  0
    5.2200    1.2960    0.0000 C   0  0
    4.4220   -2.9890    0.0000 C   0  0
    3.6890   -3.6700    0.0000 C   0  0
    2.7330   -3.3750    0.0000 C   0  0
    3.9110   -4.6440    0.0000 C   0  0
    2.0000   -4.0550    0.0000 C   0  0
    2.5100   -2.4000    0.0000 C   0  0
    3.1780   -5.3250    0.0000 C   0  0
    2.2220   -5.0300    0.0000 C   0  0
    5.9340    4.3260    0.0000 H   0  0
    5.3300    3.8440    0.0000 H   0  0
    5.0150    3.1910    0.0000 H   0  0
    5.0150    2.4180    0.0000 H   0  0
    6.4700    4.3660    0.0000 H   0  0
    5.3300    1.7660    0.0000 H   0  0
    5.9340    1.2840    0.0000 H   0  0
    8.5770    4.4590    0.0000 H   0  0
    8.5770    1.1500    0.0000 H   0  0
    6.6770    5.3250    0.0000 H   0  0
   10.0260    1.9720    0.0000 H   0  0
    7.2130   -1.1320    0.0000 H   0  0
    4.1170   -0.1770    0.0000 H   0  0
    6.0260   -2.2340    0.0000 H   0  0
    5.8250    1.4340    0.0000 H   0  0
    5.0820    1.9000    0.0000 H   0  0
    4.6160    1.1580    0.0000 H   0  0
    3.6070   -1.8320    0.0000 H   0  0
    4.5040   -4.8270    0.0000 H   0  0
    1.4080   -3.8720    0.0000 H   0  0
    3.1150   -2.2620    0.0000 H   0  0
    2.3730   -1.7960    0.0000 H   0  0
    1.9060   -2.5380    0.0000 H   0  0
    3.3160   -5.9290    0.0000 H   0  0
    1.7680   -5.4520    0.0000 H   0  0
  1 17  1  0
  9  2  1  1
  2 42  1  0
  3 13  2  0
  4 25  2  0
  5 10  1  0
  5 12  1  0
  5 13  1  0
  6 22  1  0
  6 25  1  0
  6 50  1  0
  7  8  1  0
  7  9  1  0
  7 33  1  0
  7 34  1  0
  8 10  1  0
  8 35  1  0
  8 36  1  0
  9 11  1  0
  9 37  1  6
 10 38  1  0
 10 39  1  0
 11 12  1  0
 11 14  2  0
 12 15  2  0
 13 16  1  0
 14 17  1  0
 14 40  1  0
 15 18  1  0
 15 41  1  0
 16 19  1  0
 16 20  2  0
 17 18  2  0
 18 43  1  0
 19 21  2  0
 19 24  1  0
 20 23  1  0
 20 44  1  0
 21 22  1  0
 21 45  1  0
 22 23  2  0
 23 46  1  0
 24 47  1  0
 24 48  1  0
 24 49  1  0
 25 26  1  0
 26 27  1  0
 26 28  2  0
 27 29  2  0
 27 30  1  0
 28 31  1  0
 28 51  1  0
 29 32  1  0
 29 52  1  0
 30 53  1  0
 30 54  1  0
 30 55  1  0
 31 32  2  0
 31 56  1  0
 32 57  1  0
M  END
> <Name>
443894

> <PUBCHEM_COMPOUND_CID>
443894

> <Toxicity>
1

> <Data Set>
TrainingSet

$$$$
3005573
  SciTegic12242523262D

 57 59  0  0  0  0            999 V2000
    3.7320    5.0000    0.0000 Cl  0  0
    5.4640   -2.0000    0.0000 O   0  0
    3.7320   -4.0000    0.0000 N   0  0
    5.4640    2.0000    0.0000 C   0  0
    4.5980    2.5000    0.0000 C   0  0
    5.4640    1.0000    0.0000 C   0  0
    4.5980    3.5000    0.0000 C   0  0
    6.3300    2.5000    0.0000 C   0  0
    3.7320    2.0000    0.0000 C   0  0
    4.5980    0.5000    0.0000 C   0  0
    6.3300    0.5000    0.0000 C   0  0
    3.7320    4.0000    0.0000 C   0  0
    5.4640   -1.0000    0.0000 C   0  0
    4.5980   -0.5000    0.0000 C   0  0
    6.3300   -0.5000    0.0000 C   0  0
    6.3300    3.5000    0.0000 C   0  0
    7.1960    2.0000    0.0000 C   0  0
    3.7320    1.0000    0.0000 C   0  0
    2.8660    2.5000    0.0000 C   0  0
    4.5980   -3.5000    0.0000 C   0  0
    4.5980   -2.5000    0.0000 C   0  0
    7.1960    4.0000    0.0000 C   0  0
    8.0620    2.5000    0.0000 C   0  0
    2.8660    0.5000    0.0000 C   0  0
    2.0000    2.0000    0.0000 C   0  0
    8.0620    3.5000    0.0000 C   0  0
    2.0000    1.0000    0.0000 C   0  0
    3.7320   -5.0000    0.0000 C   0  0
    2.8660   -3.5000    0.0000 C   0  0
    5.2090    3.3920    0.0000 H   0  0
    4.8100    4.0830    0.0000 H   0  0
    4.0610    0.8100    0.0000 H   0  0
    6.8670    0.8100    0.0000 H   0  0
    3.1220    4.1080    0.0000 H   0  0
    3.5200    3.4170    0.0000 H   0  0
    4.0610   -0.8100    0.0000 H   0  0
    6.8670   -0.8100    0.0000 H   0  0
    5.7930    3.8100    0.0000 H   0  0
    7.1960    1.3800    0.0000 H   0  0
    4.2690    0.6900    0.0000 H   0  0
    2.8660    3.1200    0.0000 H   0  0
    4.8100   -4.0830    0.0000 H   0  0
    5.2090   -3.3920    0.0000 H   0  0
    4.3860   -1.9170    0.0000 H   0  0
    3.9880   -2.6080    0.0000 H   0  0
    7.1960    4.6200    0.0000 H   0  0
    8.5990    2.1900    0.0000 H   0  0
    2.8660   -0.1200    0.0000 H   0  0
    1.4630    2.3100    0.0000 H   0  0
    8.5990    3.8100    0.0000 H   0  0
    1.4630    0.6900    0.0000 H   0  0
    3.1120   -5.0000    0.0000 H   0  0
    3.7320   -5.6200    0.0000 H   0  0
    4.3520   -5.0000    0.0000 H   0  0
    3.1760   -2.9630    0.0000 H   0  0
    2.3290   -3.1900    0.0000 H   0  0
    2.5560   -4.0370    0.0000 H   0  0
  1 12  1  0
  2 13  1  0
  2 21  1  0
  3 20  1  0
  3 28  1  0
  3 29  1  0
  4  5  2  0
  4  6  1  0
  4  8  1  0
  5  7  1  0
  5  9  1  0
  6 10  2  0
  6 11  1  0
  7 12  1  0
  7 30  1  0
  7 31  1  0
  8 16  2  0
  8 17  1  0
  9 18  2  0
  9 19  1  0
 10 14  1  0
 10 32  1  0
 11 15  2  0
 11 33  1  0
 12 34  1  0
 12 35  1  0
 13 14  2  0
 13 15  1  0
 14 36  1  0
 15 37  1  0
 16 22  1  0
 16 38  1  0
 17 23  2  0
 17 39  1  0
 18 24  1  0
 18 40  1  0
 19 25  2  0
 19 41  1  0
 20 21  1  0
 20 42  1  0
 20 43  1  0
 21 44  1  0
 21 45  1  0
 22 26  2  0
 22 46  1  0
 23 26  1  0
 23 47  1  0
 24 27  2  0
 24 48  1  0
 25 27  1  0
 25 49  1  0
 26 50  1  0
 27 51  1  0
 28 52  1  0
 28 53  1  0
 28 54  1  0
 29 55  1  0
 29 56  1  0
 29 57  1  0
M  END
> <Name>
3005573

> <PUBCHEM_COMPOUND_CID>
3005573

> <Toxicity>
1

> <Data Set>
TrainingSet

$$$$
5533
  SciTegic12242523262D

 48 51  0  0  0  0            999 V2000
   12.2620   -3.0430    0.0000 Cl  0  0
    4.9890    3.9090    0.0000 O   0  0
    8.2620    0.4210    0.0000 N   0  0
    9.2620   -1.3110    0.0000 N   0  0
    5.2620    2.1540    0.0000 N   0  0
    3.7320    2.6540    0.0000 N   0  0
    4.6780    1.3490    0.0000 N   0  0
    7.7620   -0.4450    0.0000 C   0  0
    9.2620    0.4210    0.0000 C   0  0
    8.2620   -1.3110    0.0000 C   0  0
    9.7620   -0.4450    0.0000 C   0  0
    7.7620    1.2870    0.0000 C   0  0
    6.7620    1.2870    0.0000 C   0  0
    6.2620    2.1540    0.0000 C   0  0
    9.7620   -2.1770    0.0000 C   0  0
   10.7620   -2.1770    0.0000 C   0  0
    9.2620   -3.0430    0.0000 C   0  0
    4.6780    2.9580    0.0000 C   0  0
    3.7320    1.6540    0.0000 C   0  0
   11.2620   -3.0430    0.0000 C   0  0
    9.7620   -3.9090    0.0000 C   0  0
   10.7620   -3.9090    0.0000 C   0  0
    2.8660    3.1540    0.0000 C   0  0
    2.8660    1.1540    0.0000 C   0  0
    2.0000    2.6540    0.0000 C   0  0
    2.0000    1.6540    0.0000 C   0  0
    7.2870   -0.0460    0.0000 H   0  0
    7.2870   -0.8430    0.0000 H   0  0
    9.8440    0.6340    0.0000 H   0  0
    9.1540    1.0320    0.0000 H   0  0
    7.6790   -1.5230    0.0000 H   0  0
    8.3700   -1.9210    0.0000 H   0  0
   10.2370   -0.8430    0.0000 H   0  0
   10.2370   -0.0460    0.0000 H   0  0
    8.3440    1.5000    0.0000 H   0  0
    7.6540    1.8980    0.0000 H   0  0
    6.1790    1.0750    0.0000 H   0  0
    6.8700    0.6770    0.0000 H   0  0
    6.8440    2.3660    0.0000 H   0  0
    6.1540    2.7640    0.0000 H   0  0
   11.0720   -1.6400    0.0000 H   0  0
    8.6420   -3.0430    0.0000 H   0  0
    9.4520   -4.4460    0.0000 H   0  0
   11.0720   -4.4460    0.0000 H   0  0
    2.8660    3.7740    0.0000 H   0  0
    2.8660    0.5340    0.0000 H   0  0
    1.4630    2.9640    0.0000 H   0  0
    1.4630    1.3440    0.0000 H   0  0
  1 20  1  0
  2 18  2  0
  3  8  1  0
  3  9  1  0
  3 12  1  0
  4 10  1  0
  4 11  1  0
  4 15  1  0
  5  7  1  0
  5 14  1  0
  5 18  1  0
  6 18  1  0
  6 19  1  0
  6 23  1  0
  7 19  2  0
  8 10  1  0
  8 27  1  0
  8 28  1  0
  9 11  1  0
  9 29  1  0
  9 30  1  0
 10 31  1  0
 10 32  1  0
 11 33  1  0
 11 34  1  0
 12 13  1  0
 12 35  1  0
 12 36  1  0
 13 14  1  0
 13 37  1  0
 13 38  1  0
 14 39  1  0
 14 40  1  0
 15 16  2  0
 15 17  1  0
 16 20  1  0
 16 41  1  0
 17 21  2  0
 17 42  1  0
 19 24  1  0
 20 22  2  0
 21 22  1  0
 21 43  1  0
 22 44  1  0
 23 25  2  0
 23 45  1  0
 24 26  2  0
 24 46  1  0
 25 26  1  0
 25 47  1  0
 26 48  1  0
M  END
> <Name>
5533

> <PUBCHEM_COMPOUND_CID>
5533

> <Toxicity>
0

> <Data Set>
TrainingSet

$$$$
5576
  SciTegic12242523262D

 19 19  0  0  0  0            999 V2000
    4.2600    0.7690    0.0000 O   0  0
    2.0000   -0.4910    0.0000 O   0  0
    5.5200   -0.4910    0.0000 O   0  0
    3.7600   -0.7690    0.0000 N   0  0
    3.2600    0.7690    0.0000 C   0  0
    2.9510   -0.1820    0.0000 C   0  0
    3.2600    1.7690    0.0000 C   0  0
    2.3090    1.0780    0.0000 C   0  0
    4.5690   -0.1820    0.0000 C   0  0
    3.7600   -1.7690    0.0000 C   0  0
    3.8800    1.7690    0.0000 H   0  0
    3.2600    2.3890    0.0000 H   0  0
    2.6400    1.7690    0.0000 H   0  0
    2.5010    1.6680    0.0000 H   0  0
    1.7190    1.2700    0.0000 H   0  0
    2.1170    0.4890    0.0000 H   0  0
    3.1400   -1.7690    0.0000 H   0  0
    3.7600   -2.3890    0.0000 H   0  0
    4.3800   -1.7690    0.0000 H   0  0
  1  5  1  0
  1  9  1  0
  2  6  2  0
  3  9  2  0
  4  6  1  0
  4  9  1  0
  4 10  1  0
  5  6  1  0
  5  7  1  0
  5  8  1  0
  7 11  1  0
  7 12  1  0
  7 13  1  0
  8 14  1  0
  8 15  1  0
  8 16  1  0
 10 17  1  0
 10 18  1  0
 10 19  1  0
M  END
> <Name>
5576

> <PUBCHEM_COMPOUND_CID>
5576

> <Toxicity>
1

> <Data Set>
TrainingSet

$$$$
5578
  SciTegic12242523262D

 39 40  0  0  0  0            999 V2000
    4.2690    2.0600    0.0000 O   0  0
    7.7330    2.0600    0.0000 O   0  0
    6.0010    3.0600    0.0000 O   0  0
    4.2690   -2.9400    0.0000 N   0  0
    3.4030   -1.4400    0.0000 N   0  0
    6.0010   -2.9400    0.0000 N   0  0
    2.5370   -2.9400    0.0000 N   0  0
    6.0010   -0.9400    0.0000 C   0  0
    6.0010    0.0600    0.0000 C   0  0
    5.1350   -1.4400    0.0000 C   0  0
    6.8670    0.5600    0.0000 C   0  0
    5.1350    0.5600    0.0000 C   0  0
    5.1350    1.5600    0.0000 C   0  0
    6.8670    1.5600    0.0000 C   0  0
    6.0010    2.0600    0.0000 C   0  0
    5.1350   -2.4400    0.0000 C   0  0
    4.2690   -0.9400    0.0000 C   0  0
    3.4030   -2.4400    0.0000 C   0  0
    3.4030    1.5600    0.0000 C   0  0
    8.5990    1.5600    0.0000 C   0  0
    6.8670    3.5600    0.0000 C   0  0
    6.2130   -1.5230    0.0000 H   0  0
    6.6120   -0.8320    0.0000 H   0  0
    7.4040    0.2500    0.0000 H   0  0
    4.5980    0.2500    0.0000 H   0  0
    4.2690   -0.3200    0.0000 H   0  0
    6.0010   -3.5600    0.0000 H   0  0
    6.5380   -2.6300    0.0000 H   0  0
    3.0930    2.0970    0.0000 H   0  0
    2.8660    1.2500    0.0000 H   0  0
    3.7130    1.0230    0.0000 H   0  0
    8.2890    1.0230    0.0000 H   0  0
    9.1360    1.2500    0.0000 H   0  0
    8.9090    2.0970    0.0000 H   0  0
    7.1770    3.0230    0.0000 H   0  0
    7.4040    3.8700    0.0000 H   0  0
    6.5570    4.0970    0.0000 H   0  0
    2.0000   -2.6300    0.0000 H   0  0
    2.5370   -3.5600    0.0000 H   0  0
  1 13  1  0
  1 19  1  0
  2 14  1  0
  2 20  1  0
  3 15  1  0
  3 21  1  0
  4 16  2  0
  4 18  1  0
  5 17  1  0
  5 18  2  0
  6 16  1  0
  6 27  1  0
  6 28  1  0
  7 18  1  0
  7 38  1  0
  7 39  1  0
  8  9  1  0
  8 10  1  0
  8 22  1  0
  8 23  1  0
  9 11  1  0
  9 12  2  0
 10 16  1  0
 10 17  2  0
 11 14  2  0
 11 24  1  0
 12 13  1  0
 12 25  1  0
 13 15  2  0
 14 15  1  0
 17 26  1  0
 19 29  1  0
 19 30  1  0
 19 31  1  0
 20 32  1  0
 20 33  1  0
 20 34  1  0
 21 35  1  0
 21 36  1  0
 21 37  1  0
M  END
> <Name>
5578

> <PUBCHEM_COMPOUND_CID>
5578

> <Toxicity>
0

> <Data Set>
TrainingSet

$$$$
5282443
  SciTegic12242523262D

 43 45  0  0  0  0            999 V2000
    3.5830    1.5000    0.0000 N   0  0
    7.0470    2.5000    0.0000 N   0  0
    3.4780    2.4940    0.0000 C   0  0
    2.6690    1.0930    0.0000 C   0  0
    2.5000    2.7020    0.0000 C   0  0
    2.0000    1.8360    0.0000 C   0  0
    4.4490    1.0000    0.0000 C   0  0
    5.3150    1.5000    0.0000 C   0  0
    6.1810    1.0000    0.0000 C   0  0
    6.1810    0.0000    0.0000 C   0  0
    7.0470    1.5000    0.0000 C   0  0
    5.3150   -0.5000    0.0000 C   0  0
    7.0470   -0.5000    0.0000 C   0  0
    7.9130    1.0000    0.0000 C   0  0
    6.1810   -2.0000    0.0000 C   0  0
    5.3150   -1.5000    0.0000 C   0  0
    7.0470   -1.5000    0.0000 C   0  0
    8.7790    1.5000    0.0000 C   0  0
    6.1810   -3.0000    0.0000 C   0  0
    7.9130    3.0000    0.0000 C   0  0
    8.7790    2.5000    0.0000 C   0  0
    4.0980    2.4940    0.0000 H   0  0
    3.5430    3.1110    0.0000 H   0  0
    2.1680    0.7290    0.0000 H   0  0
    2.9790    0.5560    0.0000 H   0  0
    2.6920    3.2920    0.0000 H   0  0
    1.9340    2.9550    0.0000 H   0  0
    1.4980    2.2010    0.0000 H   0  0
    1.5850    1.3760    0.0000 H   0  0
    4.0500    0.5250    0.0000 H   0  0
    4.8470    0.5250    0.0000 H   0  0
    5.3150    2.1200    0.0000 H   0  0
    4.7780   -0.1900    0.0000 H   0  0
    7.5840   -0.1900    0.0000 H   0  0
    7.9130    0.3800    0.0000 H   0  0
    4.7780   -1.8100    0.0000 H   0  0
    7.5840   -1.8100    0.0000 H   0  0
    9.3160    1.1900    0.0000 H   0  0
    5.5610   -3.0000    0.0000 H   0  0
    6.1810   -3.6200    0.0000 H   0  0
    6.8010   -3.0000    0.0000 H   0  0
    7.9130    3.6200    0.0000 H   0  0
    9.3160    2.8100    0.0000 H   0  0
  1  3  1  0
  1  4  1  0
  1  7  1  0
  2 11  1  0
  2 20  2  0
  3  5  1  0
  3 22  1  0
  3 23  1  0
  4  6  1  0
  4 24  1  0
  4 25  1  0
  5  6  1  0
  5 26  1  0
  5 27  1  0
  6 28  1  0
  6 29  1  0
  7  8  1  0
  7 30  1  0
  7 31  1  0
  8  9  2  0
  8 32  1  0
  9 10  1  0
  9 11  1  0
 10 12  2  0
 10 13  1  0
 11 14  2  0
 12 16  1  0
 12 33  1  0
 13 17  2  0
 13 34  1  0
 14 18  1  0
 14 35  1  0
 15 16  2  0
 15 17  1  0
 15 19  1  0
 16 36  1  0
 17 37  1  0
 18 21  2  0
 18 38  1  0
 19 39  1  0
 19 40  1  0
 19 41  1  0
 20 21  1  0
 20 42  1  0
 21 43  1  0
M  END
> <Name>
5282443

> <PUBCHEM_COMPOUND_CID>
5282443

> <Toxicity>
0

> <Data Set>
TrainingSet

$$$$
62959
  SciTegic12242523262D

 45 49  0  0  1  0            999 V2000
    8.6650    2.5240    0.0000 F   0  0
    3.4030   -0.5000    0.0000 F   0  0
    5.1350   -3.5000    0.0000 F   0  0
    5.1350    3.5000    0.0000 O   0  0
    2.5370    2.0000    0.0000 O   0  0
    3.4030    3.5000    0.0000 O   0  0
    8.6650    0.4760    0.0000 N   0  0
   11.6080   -1.2380    0.0000 N   0  0
    6.8950    0.4650    0.0000 N   0  0
    5.1350    0.5000    0.0000 N   0  0
    9.7430   -0.7310    0.0000 C   0  0  1  0  0  0
   10.2460    0.1330    0.0000 C   0  0  2  0  0  0
   10.7440   -0.7350    0.0000 C   0  0
    8.7660   -0.5190    0.0000 C   0  0
    9.5800    0.8790    0.0000 C   0  0
    7.8010    0.9790    0.0000 C   0  0
    7.8010    2.0210    0.0000 C   0  0
    6.0010    1.0000    0.0000 C   0  0
    6.8950    2.5350    0.0000 C   0  0
    6.0010    2.0000    0.0000 C   0  0
    5.1350    2.5000    0.0000 C   0  0
    4.2690    1.0000    0.0000 C   0  0
    4.2690    2.0000    0.0000 C   0  0
    5.1350   -0.5000    0.0000 C   0  0
    4.2690   -1.0000    0.0000 C   0  0
    6.0010   -1.0000    0.0000 C   0  0
    3.4030    2.5000    0.0000 C   0  0
    4.2690   -2.0000    0.0000 C   0  0
    6.0010   -2.0000    0.0000 C   0  0
    5.1350   -2.5000    0.0000 C   0  0
    9.6510   -1.5760    0.0000 H   0  0
   10.9360    0.6300    0.0000 H   0  0
   10.5810   -1.3330    0.0000 H   0  0
    8.1460   -0.5170    0.0000 H   0  0
    8.6990   -1.1350    0.0000 H   0  0
   10.0830    1.2420    0.0000 H   0  0
    9.2720    1.4170    0.0000 H   0  0
   12.1460   -0.9300    0.0000 H   0  0
   11.6050   -1.8580    0.0000 H   0  0
    6.8880    3.1550    0.0000 H   0  0
    3.7320    0.6900    0.0000 H   0  0
    6.5380   -0.6900    0.0000 H   0  0
    3.7320   -2.3100    0.0000 H   0  0
    6.5380   -2.3100    0.0000 H   0  0
    2.0000    2.3100    0.0000 H   0  0
  1 17  1  0
  2 25  1  0
  3 30  1  0
  4 21  2  0
  5 27  1  0
  5 45  1  0
  6 27  2  0
  7 14  1  0
  7 15  1  0
  7 16  1  0
  8 13  1  0
  8 38  1  0
  8 39  1  0
  9 16  1  0
  9 18  2  0
 10 18  1  0
 10 22  1  0
 10 24  1  0
 11 12  1  0
 11 13  1  0
 11 14  1  0
 11 31  1  6
 12 13  1  0
 12 15  1  0
 12 32  1  6
 13 33  1  0
 14 34  1  0
 14 35  1  0
 15 36  1  0
 15 37  1  0
 16 17  2  0
 17 19  1  0
 18 20  1  0
 19 20  2  0
 19 40  1  0
 20 21  1  0
 21 23  1  0
 22 23  2  0
 22 41  1  0
 23 27  1  0
 24 25  1  0
 24 26  2  0
 25 28  2  0
 26 29  1  0
 26 42  1  0
 28 30  1  0
 28 43  1  0
 29 30  2  0
 29 44  1  0
M  END
> <Name>
62959

> <PUBCHEM_COMPOUND_CID>
62959

> <Toxicity>
1

> <Data Set>
TrainingSet

$$$$
58557659
  SciTegic12242523262D

 46 49  0  0  1  0            999 V2000
    2.5040   -2.8280    0.0000 F   0  0
    2.0000   -4.1500    0.0000 F   0  0
    3.3210   -4.6540    0.0000 F   0  0
    5.6510   -2.5160    0.0000 O   0  0
    4.9440   -0.9350    0.0000 N   0  0
    6.0580    2.2600    0.0000 N   0  0
    7.6610    2.0930    0.0000 N   0  0
    3.9280   -2.3380    0.0000 N   0  0
    6.0580    4.2600    0.0000 N   0  0
    4.2460    4.0650    0.0000 N   0  0
    4.6050    0.6470    0.0000 C   0  0  1  0  0  0
    5.6000    0.5440    0.0000 C   0  0  2  0  0  0
    4.2000   -0.2670    0.0000 C   0  0
    5.8090   -0.4340    0.0000 C   0  0
    4.1040    1.5120    0.0000 C   0  0
    6.2680    1.2880    0.0000 C   0  0
    4.8410   -1.9300    0.0000 C   0  0
    3.1040    1.5100    0.0000 C   0  0
    7.2560    1.1850    0.0000 C   0  0
    6.9240    2.7600    0.0000 C   0  0
    5.1920    2.7600    0.0000 C   0  0
    5.1920    3.7600    0.0000 C   0  0
    6.9240    3.7600    0.0000 C   0  0
    4.2460    2.4550    0.0000 C   0  0
    3.8260   -3.3330    0.0000 C   0  0
    3.6620    3.2600    0.0000 C   0  0
    2.9130   -3.7410    0.0000 C   0  0
    4.9420    1.1670    0.0000 H   0  0
    5.2940    1.3370    0.0000 H   0  0
    3.6620    0.0420    0.0000 H   0  0
    3.8360   -0.7700    0.0000 H   0  0
    6.0620   -1.0000    0.0000 H   0  0
    6.3990   -0.2410    0.0000 H   0  0
    4.6860    1.7250    0.0000 H   0  0
    3.9950    2.1220    0.0000 H   0  0
    3.1020    2.1300    0.0000 H   0  0
    2.4840    1.5090    0.0000 H   0  0
    3.1050    0.8900    0.0000 H   0  0
    7.5660    0.6480    0.0000 H   0  0
    3.4260   -1.9750    0.0000 H   0  0
    7.4610    4.0700    0.0000 H   0  0
    4.0530    1.8660    0.0000 H   0  0
    3.9770   -3.9340    0.0000 H   0  0
    4.4440   -3.2890    0.0000 H   0  0
    4.0530    4.6540    0.0000 H   0  0
    3.0420    3.2600    0.0000 H   0  0
  1 27  1  0
  2 27  1  0
  3 27  1  0
  4 17  2  0
  5 13  1  0
  5 14  1  0
  5 17  1  0
  6 16  1  0
  6 20  1  0
  6 21  1  0
  7 19  1  0
  7 20  2  0
  8 17  1  0
  8 25  1  0
  8 40  1  0
  9 22  1  0
  9 23  2  0
 10 22  1  0
 10 26  1  0
 10 45  1  0
 11 12  1  0
 11 13  1  0
 11 15  1  1
 11 28  1  6
 12 14  1  0
 12 16  1  1
 12 29  1  6
 13 30  1  0
 13 31  1  0
 14 32  1  0
 14 33  1  0
 15 18  1  0
 15 34  1  0
 15 35  1  0
 16 19  2  0
 18 36  1  0
 18 37  1  0
 18 38  1  0
 19 39  1  0
 20 23  1  0
 21 22  2  0
 21 24  1  0
 23 41  1  0
 24 26  2  0
 24 42  1  0
 25 27  1  0
 25 43  1  0
 25 44  1  0
 26 46  1  0
M  END
> <Name>
58557659

> <PUBCHEM_COMPOUND_CID>
58557659

> <Toxicity>
1

> <Data Set>
TrainingSet

$$$$
135398742
  SciTegic12242523262D

 43 44  0  0  1  0            999 V2000
    8.9700    1.6090    0.0000 O   0  0
    7.3700   -0.4990    0.0000 O   0  0
   10.6170    1.0700    0.0000 O   0  0
    4.2690   -4.4600    0.0000 O   0  0
    6.0810   -1.6550    0.0000 N   0  0
   11.2380    2.9720    0.0000 N   0  0
    6.0810   -3.2650    0.0000 N   0  0
    4.2690   -1.4600    0.0000 N   0  0
    3.4030   -2.9600    0.0000 N   0  0
    2.5370   -1.4600    0.0000 N   0  0
    9.5920    3.5100    0.0000 C   0  0
   10.2590    2.7650    0.0000 C   0  0  1  0  0  0
    9.9020    4.4600    0.0000 C   0  0
    8.6130    3.3030    0.0000 C   0  0
    9.9490    1.8150    0.0000 C   0  0
    6.3920   -0.7050    0.0000 C   0  0
    5.1350   -1.9600    0.0000 C   0  0
    8.6600    0.6580    0.0000 C   0  0
    7.6810    0.4520    0.0000 C   0  0
    5.1350   -2.9600    0.0000 C   0  0
    6.6650   -2.4600    0.0000 C   0  0
    4.2690   -3.4600    0.0000 C   0  0
    3.4030   -1.9600    0.0000 C   0  0
   10.1980    3.6380    0.0000 H   0  0
   10.6740    2.3040    0.0000 H   0  0
   10.4920    4.2680    0.0000 H   0  0
   10.0950    5.0500    0.0000 H   0  0
    9.3130    4.6530    0.0000 H   0  0
    8.4850    3.9100    0.0000 H   0  0
    8.0060    3.1760    0.0000 H   0  0
    8.7410    2.6970    0.0000 H   0  0
   11.4300    3.5610    0.0000 H   0  0
   11.6520    2.5100    0.0000 H   0  0
    6.3710   -0.0850    0.0000 H   0  0
    5.7780   -0.6180    0.0000 H   0  0
    8.6800    0.0380    0.0000 H   0  0
    9.2730    0.5710    0.0000 H   0  0
    7.6600    1.0720    0.0000 H   0  0
    7.0670    0.5390    0.0000 H   0  0
    7.2850   -2.4600    0.0000 H   0  0
    2.8660   -3.2700    0.0000 H   0  0
    2.5370   -0.8400    0.0000 H   0  0
    2.0000   -1.7700    0.0000 H   0  0
  1 15  1  0
  1 18  1  0
  2 16  1  0
  2 19  1  0
  3 15  2  0
  4 22  2  0
  5 16  1  0
  5 17  1  0
  5 21  1  0
  6 12  1  0
  6 32  1  0
  6 33  1  0
  7 20  1  0
  7 21  2  0
  8 17  1  0
  8 23  2  0
  9 22  1  0
  9 23  1  0
  9 41  1  0
 10 23  1  0
 10 42  1  0
 10 43  1  0
 11 12  1  0
 11 13  1  0
 11 14  1  0
 11 24  1  0
 12 15  1  6
 12 25  1  1
 13 26  1  0
 13 27  1  0
 13 28  1  0
 14 29  1  0
 14 30  1  0
 14 31  1  0
 16 34  1  0
 16 35  1  0
 17 20  2  0
 18 19  1  0
 18 36  1  0
 18 37  1  0
 19 38  1  0
 19 39  1  0
 20 22  1  0
 21 40  1  0
M  END
> <Name>
135398742

> <PUBCHEM_COMPOUND_CID>
135398742

> <Toxicity>
0

> <Data Set>
TestSet

$$$$
3121
  SciTegic12242523262D

 26 25  0  0  0  0            999 V2000
    6.3300    0.5000    0.0000 O   0  0
    5.4640    2.0000    0.0000 O   0  0
    4.5980    0.5000    0.0000 C   0  0
    3.7320    1.0000    0.0000 C   0  0
    4.5980   -0.5000    0.0000 C   0  0
    2.8660    0.5000    0.0000 C   0  0
    3.7320   -1.0000    0.0000 C   0  0
    5.4640    1.0000    0.0000 C   0  0
    2.0000    1.0000    0.0000 C   0  0
    3.7320   -2.0000    0.0000 C   0  0
    4.5980    1.1200    0.0000 H   0  0
    4.1310    1.4750    0.0000 H   0  0
    3.3340    1.4750    0.0000 H   0  0
    4.8100   -1.0830    0.0000 H   0  0
    5.2090   -0.3920    0.0000 H   0  0
    2.4680    0.0250    0.0000 H   0  0
    3.2650    0.0250    0.0000 H   0  0
    3.5200   -0.4170    0.0000 H   0  0
    3.1220   -1.1080    0.0000 H   0  0
    2.3100    1.5370    0.0000 H   0  0
    1.4630    1.3100    0.0000 H   0  0
    1.6900    0.4630    0.0000 H   0  0
    3.1120   -2.0000    0.0000 H   0  0
    3.7320   -2.6200    0.0000 H   0  0
    4.3520   -2.0000    0.0000 H   0  0
    6.8670    0.8100    0.0000 H   0  0
  1  8  1  0
  1 26  1  0
  2  8  2  0
  3  4  1  0
  3  5  1  0
  3  8  1  0
  3 11  1  0
  4  6  1  0
  4 12  1  0
  4 13  1  0
  5  7  1  0
  5 14  1  0
  5 15  1  0
  6  9  1  0
  6 16  1  0
  6 17  1  0
  7 10  1  0
  7 18  1  0
  7 19  1  0
  9 20  1  0
  9 21  1  0
  9 22  1  0
 10 23  1  0
 10 24  1  0
 10 25  1  0
M  END
> <Name>
3121

> <PUBCHEM_COMPOUND_CID>
3121

> <Toxicity>
1

> <Data Set>
TrainingSet

$$$$
5310966
  SciTegic12242523262D

 29 32  0  0  1  0            999 V2000
    9.2310   -0.1050    0.0000 N   0  0
    3.4410   -2.0090    0.0000 N   0  0
    2.7040    0.0170    0.0000 N   0  0
    7.1830    0.0600    0.0000 C   0  0  1  0  0  0
    7.4410    1.0260    0.0000 C   0  0  2  0  0  0
    6.7050    2.0090    0.0000 C   0  0
    5.8100   -0.5320    0.0000 C   0  0
    5.4680    0.4080    0.0000 C   0  0
    8.4540   -0.7340    0.0000 C   0  0
    8.8730    0.8280    0.0000 C   0  0
    5.1530   -1.3400    0.0000 C   0  0
    4.4450    0.6050    0.0000 C   0  0
    4.1260   -1.1670    0.0000 C   0  0
    3.7690   -0.1880    0.0000 C   0  0
    2.3710   -1.8290    0.0000 C   0  0
    2.0000   -0.8090    0.0000 C   0  0
    6.9630   -0.7610    0.0000 H   0  0
    7.6610    1.8470    0.0000 H   0  0
    7.0230    2.5410    0.0000 H   0  0
    6.0920    2.1010    0.0000 H   0  0
    8.0700   -1.2210    0.0000 H   0  0
    8.8950   -1.1700    0.0000 H   0  0
    9.4810    0.9510    0.0000 H   0  0
    8.8540    1.4480    0.0000 H   0  0
    9.8300   -0.2660    0.0000 H   0  0
    5.3720   -1.9200    0.0000 H   0  0
    4.2400    1.1900    0.0000 H   0  0
    1.9740   -2.3050    0.0000 H   0  0
    1.3900   -0.6990    0.0000 H   0  0
  1  9  1  0
  1 10  1  0
  1 25  1  0
  2 13  1  0
  2 15  2  0
  3 14  1  0
  3 16  2  0
  4  6  1  0
  4  7  1  0
  4  9  1  0
  4 17  1  1
  5  6  1  0
  5  8  1  0
  5 10  1  0
  5 18  1  6
  6 19  1  0
  6 20  1  0
  7  8  1  0
  7 11  2  0
  8 12  2  0
  9 21  1  0
  9 22  1  0
 10 23  1  0
 10 24  1  0
 11 13  1  0
 11 26  1  0
 12 14  1  0
 12 27  1  0
 13 14  2  0
 15 16  1  0
 15 28  1  0
 16 29  1  0
M  END
> <Name>
5310966

> <PUBCHEM_COMPOUND_CID>
5310966

> <Toxicity>
1

> <Data Set>
TrainingSet

$$$$
5656
  SciTegic12242523262D

 47 48  0  0  1  0            999 V2000
    2.6200    0.1340    0.0000 O   0  0
    7.6200    0.1340    0.0000 O   0  0
    3.6200    1.8660    0.0000 N   0  0
    3.1200   -0.7320    0.0000 C   0  0
    3.6200    0.1340    0.0000 C   0  0
    2.2540   -1.2320    0.0000 C   0  0
    3.9860   -1.2320    0.0000 C   0  0
    2.2540   -2.2320    0.0000 C   0  0
    3.9860   -2.2320    0.0000 C   0  0
    3.1200   -2.7320    0.0000 C   0  0
    3.1200    1.0000    0.0000 C   0  0
    4.6200    0.1340    0.0000 C   0  0
    5.1200    1.0000    0.0000 C   0  0
    5.1200   -0.7320    0.0000 C   0  0
    3.1200    2.7320    0.0000 C   0  0
    4.6200    1.8660    0.0000 C   0  0
    6.1200    1.0000    0.0000 C   0  0
    6.1200   -0.7320    0.0000 C   0  0
    6.6200    0.1340    0.0000 C   0  0
    8.1200    1.0000    0.0000 C   0  0
    3.9300    0.6710    0.0000 H   0  0
    2.0420   -0.6490    0.0000 H   0  0
    1.6430   -1.3400    0.0000 H   0  0
    4.5970   -1.3400    0.0000 H   0  0
    4.1980   -0.6490    0.0000 H   0  0
    1.6430   -2.1240    0.0000 H   0  0
    2.0420   -2.8150    0.0000 H   0  0
    4.1980   -2.8150    0.0000 H   0  0
    4.5970   -2.1240    0.0000 H   0  0
    2.7220   -3.2070    0.0000 H   0  0
    3.5180   -3.2070    0.0000 H   0  0
    2.6450    1.3980    0.0000 H   0  0
    2.6450    0.6020    0.0000 H   0  0
    2.0000    0.1340    0.0000 H   0  0
    4.8100    1.5370    0.0000 H   0  0
    4.8100   -1.2690    0.0000 H   0  0
    3.6570    3.0420    0.0000 H   0  0
    2.8100    3.2690    0.0000 H   0  0
    2.5830    2.4220    0.0000 H   0  0
    4.6200    1.2460    0.0000 H   0  0
    5.2400    1.8660    0.0000 H   0  0
    4.6200    2.4860    0.0000 H   0  0
    6.4300    1.5370    0.0000 H   0  0
    6.4300   -1.2690    0.0000 H   0  0
    8.6570    0.6900    0.0000 H   0  0
    8.4300    1.5370    0.0000 H   0  0
    7.5830    1.3100    0.0000 H   0  0
  1  4  1  0
  1 34  1  0
  2 19  1  0
  2 20  1  0
  3 11  1  0
  3 15  1  0
  3 16  1  0
  4  5  1  0
  4  6  1  0
  4  7  1  0
  5 11  1  0
  5 12  1  0
  5 21  1  0
  6  8  1  0
  6 22  1  0
  6 23  1  0
  7  9  1  0
  7 24  1  0
  7 25  1  0
  8 10  1  0
  8 26  1  0
  8 27  1  0
  9 10  1  0
  9 28  1  0
  9 29  1  0
 10 30  1  0
 10 31  1  0
 11 32  1  0
 11 33  1  0
 12 13  2  0
 12 14  1  0
 13 17  1  0
 13 35  1  0
 14 18  2  0
 14 36  1  0
 15 37  1  0
 15 38  1  0
 15 39  1  0
 16 40  1  0
 16 41  1  0
 16 42  1  0
 17 19  2  0
 17 43  1  0
 18 19  1  0
 18 44  1  0
 20 45  1  0
 20 46  1  0
 20 47  1  0
M  END
> <Name>
5656

> <PUBCHEM_COMPOUND_CID>
5656

> <Toxicity>
0

> <Data Set>
TrainingSet

$$$$
2520
  SciTegic12242523262D

 71 72  0  0  1  0            999 V2000
    2.8660   -2.4820    0.0000 O   0  0
    4.5980   -3.4820    0.0000 O   0  0
   12.0980    1.3840    0.0000 O   0  0
   13.0980    3.1160    0.0000 O   0  0
    7.5980    2.2500    0.0000 N   0  0
    2.5980    0.5180    0.0000 N   0  0
    4.5980    0.5180    0.0000 C   0  0
    4.5980    1.5180    0.0000 C   0  0
    5.5980    0.5180    0.0000 C   0  0
    6.0980    1.3840    0.0000 C   0  0
    4.5980   -0.4820    0.0000 C   0  0
    7.0980    1.3840    0.0000 C   0  0
    5.4640    2.0180    0.0000 C   0  0
    3.7320    2.0180    0.0000 C   0  0
    3.5980    0.5180    0.0000 C   0  0
    3.7320   -0.9820    0.0000 C   0  0
    5.4640   -0.9820    0.0000 C   0  0
    8.5980    2.2500    0.0000 C   0  0
    3.7320   -1.9820    0.0000 C   0  0
    7.0980    3.1160    0.0000 C   0  0
    5.4640   -1.9820    0.0000 C   0  0
    9.0980    3.1160    0.0000 C   0  0
    4.5980   -2.4820    0.0000 C   0  0
   10.0980    3.1160    0.0000 C   0  0
   10.5980    2.2500    0.0000 C   0  0
   10.5980    3.9820    0.0000 C   0  0
   11.5980    2.2500    0.0000 C   0  0
    2.0000   -1.9820    0.0000 C   0  0
   11.5980    3.9820    0.0000 C   0  0
   12.0980    3.1160    0.0000 C   0  0
    5.4640   -3.9820    0.0000 C   0  0
   13.0980    1.3840    0.0000 C   0  0
   13.5980    3.9820    0.0000 C   0  0
    4.5980    2.1380    0.0000 H   0  0
    5.4900   -0.0930    0.0000 H   0  0
    6.1810    0.3060    0.0000 H   0  0
    6.2060    1.9950    0.0000 H   0  0
    5.5160    1.5960    0.0000 H   0  0
    6.9900    0.7730    0.0000 H   0  0
    7.6810    1.1720    0.0000 H   0  0
    5.7740    1.4810    0.0000 H   0  0
    6.0010    2.3280    0.0000 H   0  0
    5.1540    2.5550    0.0000 H   0  0
    4.0420    2.5550    0.0000 H   0  0
    3.1950    2.3280    0.0000 H   0  0
    3.4220    1.4810    0.0000 H   0  0
    3.1950   -0.6720    0.0000 H   0  0
    6.0010   -0.6720    0.0000 H   0  0
    8.4900    1.6390    0.0000 H   0  0
    9.1810    2.0380    0.0000 H   0  0
    7.6350    3.4260    0.0000 H   0  0
    6.7880    3.6530    0.0000 H   0  0
    6.5610    2.8060    0.0000 H   0  0
    9.2060    3.7270    0.0000 H   0  0
    8.5160    3.3280    0.0000 H   0  0
    6.0010   -2.2920    0.0000 H   0  0
   10.2880    1.7130    0.0000 H   0  0
   10.2880    4.5190    0.0000 H   0  0
    2.3100   -1.4450    0.0000 H   0  0
    1.4630   -1.6720    0.0000 H   0  0
    1.6900   -2.5190    0.0000 H   0  0
   11.9080    4.5190    0.0000 H   0  0
    5.1540   -4.5190    0.0000 H   0  0
    6.0010   -4.2920    0.0000 H   0  0
    5.7740   -3.4450    0.0000 H   0  0
   13.0980    0.7640    0.0000 H   0  0
   13.7180    1.3840    0.0000 H   0  0
   13.0980    2.0040    0.0000 H   0  0
   14.1350    3.6720    0.0000 H   0  0
   13.9080    4.5190    0.0000 H   0  0
   13.0610    4.2920    0.0000 H   0  0
  1 19  1  0
  1 28  1  0
  2 23  1  0
  2 31  1  0
  3 27  1  0
  3 32  1  0
  4 30  1  0
  4 33  1  0
  5 12  1  0
  5 18  1  0
  5 20  1  0
  6 15  3  0
  7  8  1  0
  7  9  1  0
  7 11  1  0
  7 15  1  0
  8 13  1  0
  8 14  1  0
  8 34  1  0
  9 10  1  0
  9 35  1  0
  9 36  1  0
 10 12  1  0
 10 37  1  0
 10 38  1  0
 11 16  2  0
 11 17  1  0
 12 39  1  0
 12 40  1  0
 13 41  1  0
 13 42  1  0
 13 43  1  0
 14 44  1  0
 14 45  1  0
 14 46  1  0
 16 19  1  0
 16 47  1  0
 17 21  2  0
 17 48  1  0
 18 22  1  0
 18 49  1  0
 18 50  1  0
 19 23  2  0
 20 51  1  0
 20 52  1  0
 20 53  1  0
 21 23  1  0
 21 56  1  0
 22 24  1  0
 22 54  1  0
 22 55  1  0
 24 25  2  0
 24 26  1  0
 25 27  1  0
 25 57  1  0
 26 29  2  0
 26 58  1  0
 27 30  2  0
 28 59  1  0
 28 60  1  0
 28 61  1  0
 29 30  1  0
 29 62  1  0
 31 63  1  0
 31 64  1  0
 31 65  1  0
 32 66  1  0
 32 67  1  0
 32 68  1  0
 33 69  1  0
 33 70  1  0
 33 71  1  0
M  END
> <Name>
2520

> <PUBCHEM_COMPOUND_CID>
2520

> <Toxicity>
0

> <Data Set>
TestSet

$$$$
5362420
  SciTegic12242523262D

 95100  0  0  1  0            999 V2000
    6.7900    4.4230    0.0000 O   0  0
    6.8100    2.6910    0.0000 O   0  0
    8.8070    6.2130    0.0000 O   0  0
    7.3110    5.3420    0.0000 O   0  0
    2.8660   -0.7930    0.0000 O   0  0
    3.7320   -2.2930    0.0000 O   0  0
    8.1410   -6.6180    0.0000 O   0  0
    6.8560   -5.4560    0.0000 O   0  0
    9.3350    1.0770    0.0000 N   0  0
    7.8650   -0.2920    0.0000 N   0  0
   10.8700   -0.2920    0.0000 N   0  0
    9.3690   -1.6620    0.0000 N   0  0
    8.8350    2.6790    0.0000 C   0  0  2  0  0  0
    8.2990    3.5740    0.0000 C   0  0  1  0  0  0
    9.8360    2.6790    0.0000 C   0  0
    8.5330    1.7120    0.0000 C   0  0
    7.8350    2.6790    0.0000 C   0  0
    8.8140    4.4810    0.0000 C   0  0
   10.1710    1.7450    0.0000 C   0  0
   10.3710    3.5740    0.0000 C   0  0
    9.8570    4.4810    0.0000 C   0  0
    7.3000    3.5630    0.0000 C   0  0
    7.5660    1.4440    0.0000 C   0  0
   11.1380    1.4440    0.0000 C   0  0
    7.2980    0.4760    0.0000 C   0  0
    8.3110    5.3450    0.0000 C   0  0
    6.3300    0.2080    0.0000 C   0  0
   11.4380    0.5090    0.0000 C   0  0
    6.3300   -0.7930    0.0000 C   0  0
    7.2980   -1.0610    0.0000 C   0  0
   12.4080    0.2420    0.0000 C   0  0
    5.4640   -1.2930    0.0000 C   0  0
    5.5340    0.8140    0.0000 C   0  0
   11.4720   -1.0280    0.0000 C   0  0
   12.4080   -0.7600    0.0000 C   0  0
    7.5990   -1.9950    0.0000 C   0  0
    8.5670   -2.2960    0.0000 C   0  0
    5.7900    4.4110    0.0000 C   0  0
    8.8680   -3.2310    0.0000 C   0  0
    4.5980   -0.7930    0.0000 C   0  0
   11.1720   -1.9950    0.0000 C   0  0
   10.1710   -2.2630    0.0000 C   0  0
   13.2030    0.8470    0.0000 C   0  0
    9.8690   -3.2310    0.0000 C   0  0
    8.1980   -3.9720    0.0000 C   0  0
    8.3040    7.0770    0.0000 C   0  0
   13.2060   -1.3620    0.0000 C   0  0
   10.4620   -4.0360    0.0000 C   0  0
    3.7320   -1.2930    0.0000 C   0  0
    8.5040   -4.9240    0.0000 C   0  0
   14.1270   -0.9710    0.0000 C   0  0
    7.8340   -5.6660    0.0000 C   0  0
    2.0000   -1.2930    0.0000 C   0  0
    7.9840    4.1080    0.0000 H   0  0
    7.8350    3.2990    0.0000 H   0  0
    7.2150    2.6790    0.0000 H   0  0
    7.8350    2.0590    0.0000 H   0  0
   10.9910    3.5670    0.0000 H   0  0
   10.1690    5.0170    0.0000 H   0  0
    7.1270    1.8820    0.0000 H   0  0
   11.5750    1.8840    0.0000 H   0  0
    8.4850   -0.2920    0.0000 H   0  0
    5.0660   -1.7680    0.0000 H   0  0
    5.8630   -1.7680    0.0000 H   0  0
   10.2510   -0.3140    0.0000 H   0  0
    5.9100    1.3070    0.0000 H   0  0
    5.0410    1.1890    0.0000 H   0  0
    5.1590    0.3200    0.0000 H   0  0
    7.1630   -2.4360    0.0000 H   0  0
    5.7820    5.0310    0.0000 H   0  0
    5.1700    4.4040    0.0000 H   0  0
    5.7970    3.7910    0.0000 H   0  0
    4.9970   -0.3180    0.0000 H   0  0
    4.2000   -0.3180    0.0000 H   0  0
   11.6020   -2.4420    0.0000 H   0  0
   13.5790    0.3540    0.0000 H   0  0
   13.6960    1.2230    0.0000 H   0  0
   12.8280    1.3410    0.0000 H   0  0
    7.8170   -3.4830    0.0000 H   0  0
    7.6490   -4.2620    0.0000 H   0  0
    8.8400    7.3900    0.0000 H   0  0
    7.9920    7.6130    0.0000 H   0  0
    7.7680    6.7650    0.0000 H   0  0
   13.1300   -1.9770    0.0000 H   0  0
    9.9630   -4.4040    0.0000 H   0  0
   10.8300   -4.5360    0.0000 H   0  0
   10.9620   -3.6690    0.0000 H   0  0
    8.8850   -5.4140    0.0000 H   0  0
    9.0520   -4.6340    0.0000 H   0  0
   14.6220   -1.3440    0.0000 H   0  0
   14.2020   -0.3560    0.0000 H   0  0
    1.6900   -0.7560    0.0000 H   0  0
    1.4630   -1.6030    0.0000 H   0  0
    2.3100   -1.8300    0.0000 H   0  0
    7.7250   -7.0770    0.0000 H   0  0
  1 22  1  0
  1 38  1  0
  2 22  2  0
  3 26  1  0
  3 46  1  0
  4 26  2  0
  5 49  1  0
  5 53  1  0
  6 49  2  0
  7 52  1  0
  7 95  1  0
  8 52  2  0
  9 16  1  0
  9 19  2  0
 10 25  1  0
 10 30  1  0
 10 62  1  0
 11 28  1  0
 11 34  1  0
 11 65  1  0
 12 37  1  0
 12 42  2  0
 13 14  1  0
 13 15  1  0
 13 16  1  0
 13 17  1  1
 14 18  1  0
 14 22  1  6
 14 54  1  1
 15 19  1  0
 15 20  2  0
 16 23  2  0
 17 55  1  0
 17 56  1  0
 17 57  1  0
 18 21  2  0
 18 26  1  0
 19 24  1  0
 20 21  1  0
 20 58  1  0
 21 59  1  0
 23 25  1  0
 23 60  1  0
 24 28  2  0
 24 61  1  0
 25 27  2  0
 27 29  1  0
 27 33  1  0
 28 31  1  0
 29 30  2  0
 29 32  1  0
 30 36  1  0
 31 35  2  0
 31 43  1  0
 32 40  1  0
 32 63  1  0
 32 64  1  0
 33 66  1  0
 33 67  1  0
 33 68  1  0
 34 35  1  0
 34 41  2  0
 35 47  1  0
 36 37  2  0
 36 69  1  0
 37 39  1  0
 38 70  1  0
 38 71  1  0
 38 72  1  0
 39 44  2  0
 39 45  1  0
 40 49  1  0
 40 73  1  0
 40 74  1  0
 41 42  1  0
 41 75  1  0
 42 44  1  0
 43 76  1  0
 43 77  1  0
 43 78  1  0
 44 48  1  0
 45 50  1  0
 45 79  1  0
 45 80  1  0
 46 81  1  0
 46 82  1  0
 46 83  1  0
 47 51  2  0
 47 84  1  0
 48 85  1  0
 48 86  1  0
 48 87  1  0
 50 52  1  0
 50 88  1  0
 50 89  1  0
 51 90  1  0
 51 91  1  0
 53 92  1  0
 53 93  1  0
 53 94  1  0
M  END
> <Name>
5362420

> <PUBCHEM_COMPOUND_CID>
5362420

> <Toxicity>
1

> <Data Set>
TestSet

$$$$
13342
  SciTegic12242523262D

117125  0  0  1  0            999 V2000
    6.8100   -4.6230    0.0000 O   0  0
    8.0780   -2.6680    0.0000 O   0  0
    8.8210   -3.3370    0.0000 O   0  0
    8.6130   -4.3150    0.0000 O   0  0
    8.1800    1.8220    0.0000 O   0  0
    8.0970   -5.7820    0.0000 O   0  0
    6.5290    0.5090    0.0000 O   0  0
    5.2440    0.5540    0.0000 O   0  0
    9.1930    5.7700    0.0000 O   0  0
    4.3840   -2.3940    0.0000 N   0  0
    7.4630   -1.3930    0.0000 N   0  0
    6.8860    5.0410    0.0000 N   0  0
    4.6680    1.8860    0.0000 N   0  0
    5.9240   -1.8940    0.0000 C   0  0  1  0  0  0
    5.2980   -2.5880    0.0000 C   0  0  2  0  0  0
    6.8380   -2.0880    0.0000 C   0  0  2  0  0  0
    5.5870   -3.4770    0.0000 C   0  0  1  0  0  0
    7.1270   -2.9770    0.0000 C   0  0  1  0  0  0
    5.5380   -0.8580    0.0000 C   0  0
    6.5010   -3.6720    0.0000 C   0  0  2  0  0  0
    6.2600   -0.3100    0.0000 C   0  0
    4.0950   -1.5050    0.0000 C   0  0
    5.8960   -4.4280    0.0000 C   0  0
    7.1740   -0.5040    0.0000 C   0  0
    4.9620   -4.1720    0.0000 C   0  0
    3.7580   -3.0890    0.0000 C   0  0
    4.0470   -3.9780    0.0000 C   0  0
    7.8700   -3.6460    0.0000 C   0  0
    5.9710    0.5790    0.0000 C   0  0
    8.4140   -1.0840    0.0000 C   0  0
    7.8000    0.1900    0.0000 C   0  0
    5.2270   -5.1720    0.0000 C   0  0
    6.5970    1.2740    0.0000 C   0  0
    7.5110    1.0790    0.0000 C   0  0
    6.2880    2.2240    0.0000 C   0  0  1  0  0  0
    7.1190   -5.5740    0.0000 C   0  0
    7.2390    2.5340    0.0000 C   0  0
    5.3600    2.5990    0.0000 C   0  0
    7.7690    3.3820    0.0000 C   0  0  2  0  0  0
    5.9130    1.2970    0.0000 C   0  0
    6.4500   -6.3170    0.0000 C   0  0
    9.5640   -4.0060    0.0000 C   0  0
    8.6440    3.9030    0.0000 C   0  0
    7.6300    4.3720    0.0000 C   0  0
    4.8910    3.4820    0.0000 C   0  0
    8.6630    4.9210    0.0000 C   0  0  1  0  0  0
    7.8080    5.4750    0.0000 C   0  0
    5.0990    4.4600    0.0000 C   0  0
    5.8870    5.0760    0.0000 C   0  0
    9.1580    1.6140    0.0000 C   0  0
    3.9120    3.3070    0.0000 C   0  0
    3.7750    2.3220    0.0000 C   0  0
    9.6620    4.8860    0.0000 C   0  0
    3.1060    3.9560    0.0000 C   0  0
    2.8210    1.9190    0.0000 C   0  0
    7.6680    0.6690    0.0000 C   0  0
   10.1920    5.7350    0.0000 C   0  0
    2.1430    3.5750    0.0000 C   0  0
    2.0000    2.5490    0.0000 C   0  0
    5.0350   -1.7800    0.0000 H   0  0
    7.6690   -2.2650    0.0000 H   0  0
    6.1150   -0.6290    0.0000 H   0  0
    5.2970   -0.2870    0.0000 H   0  0
    7.1080   -3.8010    0.0000 H   0  0
    3.8620   -0.9310    0.0000 H   0  0
    3.5120   -1.7180    0.0000 H   0  0
    6.2780   -4.9170    0.0000 H   0  0
    6.4430   -4.1370    0.0000 H   0  0
    5.1530   -4.7620    0.0000 H   0  0
    3.3770   -2.6000    0.0000 H   0  0
    3.2110   -3.3800    0.0000 H   0  0
    3.6320   -4.4380    0.0000 H   0  0
    5.3650    0.7080    0.0000 H   0  0
    8.4920   -2.2070    0.0000 H   0  0
    8.6060   -1.6740    0.0000 H   0  0
    9.0040   -0.8930    0.0000 H   0  0
    8.2230   -0.4950    0.0000 H   0  0
    8.4060    0.0610    0.0000 H   0  0
    4.7660   -4.7570    0.0000 H   0  0
    4.8120   -5.6320    0.0000 H   0  0
    5.6880   -5.5860    0.0000 H   0  0
    7.2530    1.9140    0.0000 H   0  0
    7.8370    2.3700    0.0000 H   0  0
    8.6000    3.2050    0.0000 H   0  0
    5.9890   -5.9020    0.0000 H   0  0
    6.0350   -6.7780    0.0000 H   0  0
    6.9110   -6.7320    0.0000 H   0  0
    9.1490   -4.4670    0.0000 H   0  0
   10.0250   -4.4210    0.0000 H   0  0
    9.9790   -3.5460    0.0000 H   0  0
    8.8580    3.3210    0.0000 H   0  0
    9.2550    4.0060    0.0000 H   0  0
    8.2420    4.2780    0.0000 H   0  0
    7.8950    4.9320    0.0000 H   0  0
    4.3570    1.3500    0.0000 H   0  0
    8.2350    5.9250    0.0000 H   0  0
    7.4450    5.9780    0.0000 H   0  0
    4.8730    5.0380    0.0000 H   0  0
    4.4810    4.4100    0.0000 H   0  0
    6.0850    5.6630    0.0000 H   0  0
    5.3810    5.4340    0.0000 H   0  0
    9.0290    1.0080    0.0000 H   0  0
    9.7650    1.4860    0.0000 H   0  0
    9.2870    2.2210    0.0000 H   0  0
    9.5340    4.2800    0.0000 H   0  0
   10.2370    4.6540    0.0000 H   0  0
    8.9020    6.3170    0.0000 H   0  0
    3.1990    4.5690    0.0000 H   0  0
    2.7430    1.3040    0.0000 H   0  0
    7.7540    0.0550    0.0000 H   0  0
    8.2820    0.7560    0.0000 H   0  0
    7.5810    1.2830    0.0000 H   0  0
   10.7180    5.4060    0.0000 H   0  0
   10.5210    6.2600    0.0000 H   0  0
    9.6670    6.0630    0.0000 H   0  0
    1.6560    3.9580    0.0000 H   0  0
    1.4260    2.3140    0.0000 H   0  0
 20  1  1  6
  1 36  1  0
 18  2  1  6
  2 74  1  0
  3 28  1  0
  3 42  1  0
  4 28  2  0
  5 34  1  0
  5 50  1  0
  6 36  2  0
  7 40  1  0
  7 56  1  0
  8 40  2  0
 46  9  1  1
  9107  1  0
 10 15  1  0
 10 22  1  0
 10 26  1  0
 11 16  1  0
 11 24  1  0
 11 30  1  0
 12 44  1  0
 12 47  1  0
 12 49  1  0
 13 38  1  0
 13 52  1  0
 13 95  1  0
 14 15  1  0
 14 16  1  0
 14 19  1  0
 14 21  1  1
 15 17  1  0
 15 60  1  1
 16 18  1  0
 16 61  1  6
 17 20  1  0
 17 23  1  1
 17 25  1  0
 18 20  1  0
 18 28  1  1
 19 22  1  0
 19 62  1  0
 19 63  1  0
 20 64  1  1
 21 24  1  0
 21 29  2  0
 22 65  1  0
 22 66  1  0
 23 32  1  0
 23 67  1  0
 23 68  1  0
 24 31  2  0
 25 27  2  0
 25 69  1  0
 26 27  1  0
 26 70  1  0
 26 71  1  0
 27 72  1  0
 29 33  1  0
 29 73  1  0
 30 75  1  0
 30 76  1  0
 30 77  1  0
 31 34  1  0
 31 78  1  0
 32 79  1  0
 32 80  1  0
 32 81  1  0
 33 34  2  0
 35 33  1  6
 35 37  1  0
 35 38  1  0
 35 40  1  1
 36 41  1  0
 37 39  1  0
 37 82  1  0
 37 83  1  0
 38 45  2  0
 39 43  1  0
 39 44  1  0
 39 84  1  6
 41 85  1  0
 41 86  1  0
 41 87  1  0
 42 88  1  0
 42 89  1  0
 42 90  1  0
 43 46  1  0
 43 91  1  0
 43 92  1  0
 44 93  1  0
 44 94  1  0
 45 48  1  0
 45 51  1  0
 46 47  1  0
 46 53  1  6
 47 96  1  0
 47 97  1  0
 48 49  1  0
 48 98  1  0
 48 99  1  0
 49100  1  0
 49101  1  0
 50102  1  0
 50103  1  0
 50104  1  0
 51 52  1  0
 51 54  2  0
 52 55  2  0
 53 57  1  0
 53105  1  0
 53106  1  0
 54 58  1  0
 54108  1  0
 55 59  1  0
 55109  1  0
 56110  1  0
 56111  1  0
 56112  1  0
 57113  1  0
 57114  1  0
 57115  1  0
 58 59  2  0
 58116  1  0
 59117  1  0
M  END
> <Name>
13342

> <PUBCHEM_COMPOUND_CID>
13342

> <Toxicity>
1

> <Data Set>
TrainingSet

$$$$
5978
  SciTegic12242523262D

116124  0  0  1  0            999 V2000
    6.8100   -4.6230    0.0000 O   0  0
    8.0780   -2.6680    0.0000 O   0  0
    8.8210   -3.3370    0.0000 O   0  0
    8.6130   -4.3150    0.0000 O   0  0
    9.1570   -1.7540    0.0000 O   0  0
    8.1800    1.8220    0.0000 O   0  0
    8.0970   -5.7820    0.0000 O   0  0
    6.5290    0.5090    0.0000 O   0  0
    5.2440    0.5540    0.0000 O   0  0
    9.1930    5.7700    0.0000 O   0  0
    4.3840   -2.3940    0.0000 N   0  0
    7.4630   -1.3930    0.0000 N   0  0
    6.8860    5.0410    0.0000 N   0  0
    4.6680    1.8860    0.0000 N   0  0
    5.9240   -1.8940    0.0000 C   0  0  1  0  0  0
    5.2980   -2.5880    0.0000 C   0  0  2  0  0  0
    5.5870   -3.4770    0.0000 C   0  0  1  0  0  0
    6.8380   -2.0880    0.0000 C   0  0  2  0  0  0
    7.1270   -2.9770    0.0000 C   0  0  1  0  0  0
    5.5380   -0.8580    0.0000 C   0  0
    6.5010   -3.6720    0.0000 C   0  0  2  0  0  0
    6.2600   -0.3100    0.0000 C   0  0
    4.0950   -1.5050    0.0000 C   0  0
    5.8960   -4.4280    0.0000 C   0  0
    4.9620   -4.1720    0.0000 C   0  0
    7.1740   -0.5040    0.0000 C   0  0
    3.7580   -3.0890    0.0000 C   0  0
    4.0470   -3.9780    0.0000 C   0  0
    7.8700   -3.6460    0.0000 C   0  0
    5.9710    0.5790    0.0000 C   0  0
    5.2270   -5.1720    0.0000 C   0  0
    7.8000    0.1900    0.0000 C   0  0
    8.4140   -1.0840    0.0000 C   0  0
    6.5970    1.2740    0.0000 C   0  0
    7.5110    1.0790    0.0000 C   0  0
    6.2880    2.2240    0.0000 C   0  0  1  0  0  0
    7.1190   -5.5740    0.0000 C   0  0
    7.2390    2.5340    0.0000 C   0  0
    5.3600    2.5990    0.0000 C   0  0
    7.7690    3.3820    0.0000 C   0  0  1  0  0  0
    5.9130    1.2970    0.0000 C   0  0
    6.4500   -6.3170    0.0000 C   0  0
    9.5640   -4.0060    0.0000 C   0  0
    8.6440    3.9030    0.0000 C   0  0
    7.6300    4.3720    0.0000 C   0  0
    4.8910    3.4820    0.0000 C   0  0
    8.6630    4.9210    0.0000 C   0  0  1  0  0  0
    7.8080    5.4750    0.0000 C   0  0
    5.0990    4.4600    0.0000 C   0  0
    5.8870    5.0760    0.0000 C   0  0
    3.9120    3.3070    0.0000 C   0  0
    9.1580    1.6140    0.0000 C   0  0
    3.7750    2.3220    0.0000 C   0  0
    9.6620    4.8860    0.0000 C   0  0
    3.1060    3.9560    0.0000 C   0  0
    2.8210    1.9190    0.0000 C   0  0
   10.1920    5.7350    0.0000 C   0  0
    7.6680    0.6690    0.0000 C   0  0
    2.1430    3.5750    0.0000 C   0  0
    2.0000    2.5490    0.0000 C   0  0
    5.0350   -1.7800    0.0000 H   0  0
    7.6690   -2.2650    0.0000 H   0  0
    6.1150   -0.6290    0.0000 H   0  0
    5.2970   -0.2870    0.0000 H   0  0
    7.1080   -3.8010    0.0000 H   0  0
    3.8620   -0.9310    0.0000 H   0  0
    3.5120   -1.7180    0.0000 H   0  0
    6.2780   -4.9170    0.0000 H   0  0
    6.4430   -4.1370    0.0000 H   0  0
    5.1530   -4.7620    0.0000 H   0  0
    3.3770   -2.6000    0.0000 H   0  0
    3.2110   -3.3800    0.0000 H   0  0
    3.6320   -4.4380    0.0000 H   0  0
    5.3650    0.7080    0.0000 H   0  0
    8.4920   -2.2070    0.0000 H   0  0
    4.7660   -4.7570    0.0000 H   0  0
    4.8120   -5.6320    0.0000 H   0  0
    5.6880   -5.5860    0.0000 H   0  0
    8.4060    0.0610    0.0000 H   0  0
    8.5430   -0.4780    0.0000 H   0  0
    7.2530    1.9140    0.0000 H   0  0
    7.8370    2.3700    0.0000 H   0  0
    8.6000    3.2050    0.0000 H   0  0
    5.9890   -5.9020    0.0000 H   0  0
    6.0350   -6.7780    0.0000 H   0  0
    6.9110   -6.7320    0.0000 H   0  0
    9.1490   -4.4670    0.0000 H   0  0
   10.0250   -4.4210    0.0000 H   0  0
    9.9790   -3.5460    0.0000 H   0  0
    8.8580    3.3210    0.0000 H   0  0
    9.2550    4.0060    0.0000 H   0  0
    8.2420    4.2780    0.0000 H   0  0
    7.8950    4.9320    0.0000 H   0  0
    4.3570    1.3500    0.0000 H   0  0
    8.2350    5.9250    0.0000 H   0  0
    7.4450    5.9780    0.0000 H   0  0
    4.8730    5.0380    0.0000 H   0  0
    4.4810    4.4100    0.0000 H   0  0
    6.0850    5.6630    0.0000 H   0  0
    5.3810    5.4340    0.0000 H   0  0
    9.0290    1.0080    0.0000 H   0  0
    9.7650    1.4860    0.0000 H   0  0
    9.2870    2.2210    0.0000 H   0  0
    9.5340    4.2800    0.0000 H   0  0
   10.2370    4.6540    0.0000 H   0  0
    8.9020    6.3170    0.0000 H   0  0
    3.1990    4.5690    0.0000 H   0  0
    2.7430    1.3040    0.0000 H   0  0
   10.7180    5.4060    0.0000 H   0  0
   10.5210    6.2600    0.0000 H   0  0
    9.6670    6.0630    0.0000 H   0  0
    7.7540    0.0550    0.0000 H   0  0
    8.2820    0.7560    0.0000 H   0  0
    7.5810    1.2830    0.0000 H   0  0
    1.6560    3.9580    0.0000 H   0  0
    1.4260    2.3140    0.0000 H   0  0
 21  1  1  6
  1 37  1  0
 19  2  1  6
  2 75  1  0
  3 29  1  0
  3 43  1  0
  4 29  2  0
  5 33  2  0
  6 35  1  0
  6 52  1  0
  7 37  2  0
  8 41  1  0
  8 58  1  0
  9 41  2  0
 47 10  1  1
 10106  1  0
 11 16  1  0
 11 23  1  0
 11 27  1  0
 12 18  1  0
 12 26  1  0
 12 33  1  0
 13 45  1  0
 13 48  1  0
 13 50  1  0
 14 39  1  0
 14 53  1  0
 14 94  1  0
 15 16  1  0
 15 18  1  0
 15 20  1  0
 15 22  1  1
 16 17  1  0
 16 61  1  1
 17 21  1  0
 17 24  1  1
 17 25  1  0
 18 19  1  0
 18 62  1  6
 19 21  1  0
 19 29  1  1
 20 23  1  0
 20 63  1  0
 20 64  1  0
 21 65  1  1
 22 26  1  0
 22 30  2  0
 23 66  1  0
 23 67  1  0
 24 31  1  0
 24 68  1  0
 24 69  1  0
 25 28  2  0
 25 70  1  0
 26 32  2  0
 27 28  1  0
 27 71  1  0
 27 72  1  0
 28 73  1  0
 30 34  1  0
 30 74  1  0
 31 76  1  0
 31 77  1  0
 31 78  1  0
 32 35  1  0
 32 79  1  0
 33 80  1  0
 34 35  2  0
 36 34  1  6
 36 38  1  0
 36 39  1  0
 36 41  1  1
 37 42  1  0
 38 40  1  0
 38 81  1  0
 38 82  1  0
 39 46  2  0
 40 44  1  0
 40 45  1  0
 40 83  1  1
 42 84  1  0
 42 85  1  0
 42 86  1  0
 43 87  1  0
 43 88  1  0
 43 89  1  0
 44 47  1  0
 44 90  1  0
 44 91  1  0
 45 92  1  0
 45 93  1  0
 46 49  1  0
 46 51  1  0
 47 48  1  0
 47 54  1  6
 48 95  1  0
 48 96  1  0
 49 50  1  0
 49 97  1  0
 49 98  1  0
 50 99  1  0
 50100  1  0
 51 53  1  0
 51 55  2  0
 52101  1  0
 52102  1  0
 52103  1  0
 53 56  2  0
 54 57  1  0
 54104  1  0
 54105  1  0
 55 59  1  0
 55107  1  0
 56 60  1  0
 56108  1  0
 57109  1  0
 57110  1  0
 57111  1  0
 58112  1  0
 58113  1  0
 58114  1  0
 59 60  2  0
 59115  1  0
 60116  1  0
M  END
> <Name>
5978

> <PUBCHEM_COMPOUND_CID>
5978

> <Toxicity>
1

> <Data Set>
TrainingSet

$$$$
44424639
  SciTegic12242523262D

111119  0  0  1  0            999 V2000
    6.7320   -4.8270    0.0000 O   0  0
    7.9990   -2.8720    0.0000 O   0  0
    8.7420   -3.5420    0.0000 O   0  0
    8.5340   -4.5200    0.0000 O   0  0
    8.1020    1.6180    0.0000 O   0  0
    8.0190   -5.9860    0.0000 O   0  0
    6.3000    0.2900    0.0000 O   0  0
    5.0240    0.4470    0.0000 O   0  0
    4.3050   -2.5980    0.0000 N   0  0
    7.3850   -1.5980    0.0000 N   0  0
    4.5120    1.8920    0.0000 N   0  0
    6.4140    4.6250    0.0000 N   0  0
    5.8450   -2.0980    0.0000 C   0  0  1  0  0  0
    5.2200   -2.7930    0.0000 C   0  0  2  0  0  0
    5.5080   -3.6820    0.0000 C   0  0  1  0  0  0
    6.7590   -2.2920    0.0000 C   0  0  2  0  0  0
    7.0480   -3.1810    0.0000 C   0  0  2  0  0  0
    5.4600   -1.0620    0.0000 C   0  0
    6.4230   -3.8760    0.0000 C   0  0  2  0  0  0
    6.1820   -0.5140    0.0000 C   0  0
    4.0160   -1.7090    0.0000 C   0  0
    5.8170   -4.6330    0.0000 C   0  0
    7.0960   -0.7090    0.0000 C   0  0
    4.8830   -4.3760    0.0000 C   0  0
    3.6800   -3.2930    0.0000 C   0  0
    3.9690   -4.1820    0.0000 C   0  0
    7.7910   -3.8500    0.0000 C   0  0
    5.8930    0.3740    0.0000 C   0  0
    8.3360   -1.2890    0.0000 C   0  0
    7.7210   -0.0140    0.0000 C   0  0
    5.1480   -5.3760    0.0000 C   0  0
    6.5180    1.0690    0.0000 C   0  0
    7.4320    0.8750    0.0000 C   0  0
    6.2090    2.0200    0.0000 C   0  0  1  0  0  0
    7.0410   -5.7780    0.0000 C   0  0
    7.1600    2.3290    0.0000 C   0  0
    5.3180    2.4740    0.0000 C   0  0
    5.7550    1.1290    0.0000 C   0  0
    7.6140    3.2200    0.0000 C   0  0  1  0  0  0
    6.3720   -6.5210    0.0000 C   0  0
    9.4850   -4.2110    0.0000 C   0  0
    5.0090    3.4250    0.0000 C   0  0
    7.3050    4.1710    0.0000 C   0  0
    5.4630    4.3160    0.0000 C   0  0
    9.0800    1.4100    0.0000 C   0  0
    8.3430    3.9070    0.0000 C   0  0
    4.0150    3.4230    0.0000 C   0  0
    3.7090    2.4770    0.0000 C   0  0
    7.2060    5.2380    0.0000 C   0  0
    8.1450    4.8890    0.0000 C   0  0
    3.3330    4.2020    0.0000 C   0  0
    2.6990    2.2450    0.0000 C   0  0
    8.9050    5.5380    0.0000 C   0  0
    7.4480    0.3510    0.0000 C   0  0
    2.3190    3.9940    0.0000 C   0  0
    2.0000    3.0090    0.0000 C   0  0
    8.7230    6.5210    0.0000 C   0  0
    4.9570   -1.9840    0.0000 H   0  0
    7.5910   -2.4690    0.0000 H   0  0
    6.0360   -0.8340    0.0000 H   0  0
    5.2190   -0.4910    0.0000 H   0  0
    7.0290   -4.0050    0.0000 H   0  0
    3.7830   -1.1350    0.0000 H   0  0
    3.4340   -1.9220    0.0000 H   0  0
    6.1990   -5.1210    0.0000 H   0  0
    6.3650   -4.3420    0.0000 H   0  0
    5.0740   -4.9660    0.0000 H   0  0
    3.2980   -2.8040    0.0000 H   0  0
    3.1320   -3.5840    0.0000 H   0  0
    3.5540   -4.6430    0.0000 H   0  0
    5.2860    0.5030    0.0000 H   0  0
    8.4140   -2.4120    0.0000 H   0  0
    8.5270   -1.8780    0.0000 H   0  0
    8.9250   -1.0970    0.0000 H   0  0
    8.1440   -0.6990    0.0000 H   0  0
    8.3280   -0.1430    0.0000 H   0  0
    4.6870   -4.9610    0.0000 H   0  0
    4.7330   -5.8370    0.0000 H   0  0
    5.6090   -5.7910    0.0000 H   0  0
    7.1930    1.7100    0.0000 H   0  0
    7.7670    2.2000    0.0000 H   0  0
    8.2940    2.7100    0.0000 H   0  0
    5.9110   -6.1060    0.0000 H   0  0
    5.9570   -6.9820    0.0000 H   0  0
    6.8320   -6.9360    0.0000 H   0  0
    9.0700   -4.6710    0.0000 H   0  0
    9.9460   -4.6260    0.0000 H   0  0
    9.9000   -3.7500    0.0000 H   0  0
    7.9240    4.2040    0.0000 H   0  0
    7.4340    4.7780    0.0000 H   0  0
    4.1130    1.4180    0.0000 H   0  0
    5.4310    4.9350    0.0000 H   0  0
    4.8570    4.4450    0.0000 H   0  0
    8.9510    0.8040    0.0000 H   0  0
    9.6860    1.2810    0.0000 H   0  0
    9.2090    2.0170    0.0000 H   0  0
    8.9340    3.7190    0.0000 H   0  0
    7.5260    5.7690    0.0000 H   0  0
    6.7430    5.6500    0.0000 H   0  0
    3.5310    4.7900    0.0000 H   0  0
    2.5150    1.6530    0.0000 H   0  0
    9.2200    5.0040    0.0000 H   0  0
    9.4860    5.7550    0.0000 H   0  0
    7.4810   -0.2680    0.0000 H   0  0
    8.0670    0.3830    0.0000 H   0  0
    7.4160    0.9700    0.0000 H   0  0
    1.9060    4.4560    0.0000 H   0  0
    1.3940    2.8770    0.0000 H   0  0
    9.3330    6.6340    0.0000 H   0  0
    8.6100    7.1310    0.0000 H   0  0
    8.1140    6.4080    0.0000 H   0  0
 19  1  1  6
  1 35  1  0
 17  2  1  1
  2 72  1  0
  3 27  1  0
  3 41  1  0
  4 27  2  0
  5 33  1  0
  5 45  1  0
  6 35  2  0
  7 38  1  0
  7 54  1  0
  8 38  2  0
  9 14  1  0
  9 21  1  0
  9 25  1  0
 10 16  1  0
 10 23  1  0
 10 29  1  0
 11 37  1  0
 11 48  1  0
 11 91  1  0
 12 43  1  0
 12 44  1  0
 12 49  1  0
 13 14  1  0
 13 16  1  0
 13 18  1  0
 13 20  1  1
 14 15  1  0
 14 58  1  1
 15 19  1  0
 15 22  1  1
 15 24  1  0
 16 17  1  0
 16 59  1  6
 17 19  1  0
 17 27  1  6
 18 21  1  0
 18 60  1  0
 18 61  1  0
 19 62  1  1
 20 23  1  0
 20 28  2  0
 21 63  1  0
 21 64  1  0
 22 31  1  0
 22 65  1  0
 22 66  1  0
 23 30  2  0
 24 26  2  0
 24 67  1  0
 25 26  1  0
 25 68  1  0
 25 69  1  0
 26 70  1  0
 28 32  1  0
 28 71  1  0
 29 73  1  0
 29 74  1  0
 29 75  1  0
 30 33  1  0
 30 76  1  0
 31 77  1  0
 31 78  1  0
 31 79  1  0
 32 33  2  0
 34 32  1  6
 34 36  1  0
 34 37  1  0
 34 38  1  1
 35 40  1  0
 36 39  1  0
 36 80  1  0
 36 81  1  0
 37 42  2  0
 39 43  1  0
 39 46  1  0
 39 82  1  6
 40 83  1  0
 40 84  1  0
 40 85  1  0
 41 86  1  0
 41 87  1  0
 41 88  1  0
 42 44  1  0
 42 47  1  0
 43 89  1  0
 43 90  1  0
 44 92  1  0
 44 93  1  0
 45 94  1  0
 45 95  1  0
 45 96  1  0
 46 50  2  0
 46 97  1  0
 47 48  1  0
 47 51  2  0
 48 52  2  0
 49 50  1  0
 49 98  1  0
 49 99  1  0
 50 53  1  0
 51 55  1  0
 51100  1  0
 52 56  1  0
 52101  1  0
 53 57  1  0
 53102  1  0
 53103  1  0
 54104  1  0
 54105  1  0
 54106  1  0
 55 56  2  0
 55107  1  0
 56108  1  0
 57109  1  0
 57110  1  0
 57111  1  0
M  END
> <Name>
44424639

> <PUBCHEM_COMPOUND_CID>
44424639

> <Toxicity>
1

> <Data Set>
TestSet

$$$$
14985
  SciTegic12242523262D

 81 82  0  0  1  0            999 V2000
    6.0290   -2.7890    0.0000 O   0  0
    2.5370   -0.7540    0.0000 O   0  0
    6.9350   -2.2750    0.0000 C   0  0  2  0  0  0
    7.9350   -2.2790    0.0000 C   0  0
    6.9350   -1.2340    0.0000 C   0  0
    8.4380   -1.4150    0.0000 C   0  0
    9.9420   -0.5550    0.0000 C   0  0  1  0  0  0
    9.4380   -1.4190    0.0000 C   0  0
    6.0290   -0.7200    0.0000 C   0  0
   10.9420   -0.5580    0.0000 C   0  0
    7.4320   -3.1430    0.0000 C   0  0
    5.1350   -1.2540    0.0000 C   0  0
   11.4450    0.3060    0.0000 C   0  0
    5.1350   -2.2540    0.0000 C   0  0
   12.4450    0.3020    0.0000 C   0  0
   12.9480    1.1660    0.0000 C   0  0  1  0  0  0
    9.4450    0.3130    0.0000 C   0  0
   13.9480    1.1620    0.0000 C   0  0
    4.2690   -0.7540    0.0000 C   0  0
    4.2690   -2.7540    0.0000 C   0  0
   14.4520    2.0260    0.0000 C   0  0
    3.4030   -2.2540    0.0000 C   0  0
   12.4520    2.0340    0.0000 C   0  0
    3.4030   -1.2540    0.0000 C   0  0
   15.4520    2.0220    0.0000 C   0  0
   15.9550    2.8860    0.0000 C   0  0
    4.2690    0.2460    0.0000 C   0  0
    4.2690   -3.7540    0.0000 C   0  0
    2.5370   -2.7540    0.0000 C   0  0
   16.9550    2.8820    0.0000 C   0  0
   15.4580    3.7540    0.0000 C   0  0
    7.8250   -2.8890    0.0000 H   0  0
    8.5170   -2.4930    0.0000 H   0  0
    7.5460   -1.3400    0.0000 H   0  0
    7.1440   -0.6500    0.0000 H   0  0
    8.5480   -0.8050    0.0000 H   0  0
    7.8570   -1.2010    0.0000 H   0  0
    9.3220   -0.5520    0.0000 H   0  0
    9.3280   -2.0290    0.0000 H   0  0
   10.0200   -1.6330    0.0000 H   0  0
    6.4230   -0.2410    0.0000 H   0  0
    5.6240   -0.2500    0.0000 H   0  0
   10.8320   -1.1690    0.0000 H   0  0
   11.5240   -0.7730    0.0000 H   0  0
    6.8940   -3.4510    0.0000 H   0  0
    7.7400   -3.6810    0.0000 H   0  0
    7.9700   -2.8350    0.0000 H   0  0
   11.5550    0.9160    0.0000 H   0  0
   10.8630    0.5200    0.0000 H   0  0
   12.3350   -0.3080    0.0000 H   0  0
   13.0270    0.0880    0.0000 H   0  0
   13.2600    1.7020    0.0000 H   0  0
    9.9830    0.6210    0.0000 H   0  0
    9.1370    0.8520    0.0000 H   0  0
    8.9070    0.0050    0.0000 H   0  0
   13.8380    0.5520    0.0000 H   0  0
   14.5300    0.9480    0.0000 H   0  0
   14.5620    2.6360    0.0000 H   0  0
   13.8700    2.2400    0.0000 H   0  0
   12.9900    2.3420    0.0000 H   0  0
   12.1440    2.5720    0.0000 H   0  0
   11.9140    1.7260    0.0000 H   0  0
   15.3420    1.4120    0.0000 H   0  0
   16.0330    1.8080    0.0000 H   0  0
   16.2630    2.3480    0.0000 H   0  0
    4.8890    0.2460    0.0000 H   0  0
    4.2690    0.8660    0.0000 H   0  0
    3.6490    0.2460    0.0000 H   0  0
    3.6490   -3.7540    0.0000 H   0  0
    4.2690   -4.3740    0.0000 H   0  0
    4.8890   -3.7540    0.0000 H   0  0
    2.2270   -2.2170    0.0000 H   0  0
    2.0000   -3.0640    0.0000 H   0  0
    2.8470   -3.2910    0.0000 H   0  0
   16.9530    2.2620    0.0000 H   0  0
   17.5750    2.8800    0.0000 H   0  0
   16.9570    3.5020    0.0000 H   0  0
   15.9960    4.0620    0.0000 H   0  0
   15.1500    4.2920    0.0000 H   0  0
   14.9200    3.4460    0.0000 H   0  0
    2.0000   -1.0640    0.0000 H   0  0
  1  3  1  0
  1 14  1  0
  2 24  1  0
  2 81  1  0
  3  4  1  1
  3  5  1  0
  3 11  1  6
  4  6  1  0
  4 32  1  0
  4 33  1  0
  5  9  1  0
  5 34  1  0
  5 35  1  0
  6  8  1  0
  6 36  1  0
  6 37  1  0
  7  8  1  0
  7 10  1  0
  7 17  1  6
  7 38  1  1
  8 39  1  0
  8 40  1  0
  9 12  1  0
  9 41  1  0
  9 42  1  0
 10 13  1  0
 10 43  1  0
 10 44  1  0
 11 45  1  0
 11 46  1  0
 11 47  1  0
 12 14  1  0
 12 19  2  0
 13 15  1  0
 13 48  1  0
 13 49  1  0
 14 20  2  0
 15 16  1  0
 15 50  1  0
 15 51  1  0
 16 18  1  6
 16 23  1  0
 16 52  1  1
 17 53  1  0
 17 54  1  0
 17 55  1  0
 18 21  1  0
 18 56  1  0
 18 57  1  0
 19 24  1  0
 19 27  1  0
 20 22  1  0
 20 28  1  0
 21 25  1  0
 21 58  1  0
 21 59  1  0
 22 24  2  0
 22 29  1  0
 23 60  1  0
 23 61  1  0
 23 62  1  0
 25 26  1  0
 25 63  1  0
 25 64  1  0
 26 30  1  0
 26 31  1  0
 26 65  1  0
 27 66  1  0
 27 67  1  0
 27 68  1  0
 28 69  1  0
 28 70  1  0
 28 71  1  0
 29 72  1  0
 29 73  1  0
 29 74  1  0
 30 75  1  0
 30 76  1  0
 30 77  1  0
 31 78  1  0
 31 79  1  0
 31 80  1  0
M  END
> <Name>
14985

> <PUBCHEM_COMPOUND_CID>
14985

> <Toxicity>
0

> <Data Set>
TrainingSet

$$$$
54678486
  SciTegic12242523262D

 39 41  0  0  1  0            999 V2000
    4.6660   -2.2330    0.0000 O   0  0
    4.6660    0.7670    0.0000 O   0  0
    6.3980   -2.2330    0.0000 O   0  0
    8.1300    0.7670    0.0000 O   0  0
    6.3980   -0.2330    0.0000 C   0  0
    5.5320   -0.7330    0.0000 C   0  0
    6.3980    0.7670    0.0000 C   0  0
    7.2640   -0.7330    0.0000 C   0  0
    4.6660   -0.2330    0.0000 C   0  0
    3.8000   -0.7330    0.0000 C   0  0
    5.5320   -1.7330    0.0000 C   0  0
    7.2640    1.2670    0.0000 C   0  0
    7.2640   -1.7330    0.0000 C   0  0
    8.1300   -0.2330    0.0000 C   0  0
    3.8000   -1.7330    0.0000 C   0  0
    2.9060   -0.1980    0.0000 C   0  0
    8.1300   -2.2330    0.0000 C   0  0
    8.9960   -0.7330    0.0000 C   0  0
    2.9060   -2.2670    0.0000 C   0  0
    7.2640    2.2670    0.0000 C   0  0
    8.9960   -1.7330    0.0000 C   0  0
    2.0000   -0.7120    0.0000 C   0  0
    2.0000   -1.7540    0.0000 C   0  0
    6.9350    0.0770    0.0000 H   0  0
    6.1860    1.3500    0.0000 H   0  0
    5.7880    0.6600    0.0000 H   0  0
    6.7270   -2.0430    0.0000 H   0  0
    8.1300    0.3870    0.0000 H   0  0
    2.9130    0.4220    0.0000 H   0  0
    8.1300   -2.8530    0.0000 H   0  0
    9.5330   -0.4230    0.0000 H   0  0
    2.9130   -2.8870    0.0000 H   0  0
    7.8840    2.2670    0.0000 H   0  0
    7.2640    2.8870    0.0000 H   0  0
    6.6440    2.2670    0.0000 H   0  0
    9.5330   -2.0430    0.0000 H   0  0
    1.4640   -0.4000    0.0000 H   0  0
    4.1290    1.0770    0.0000 H   0  0
    1.4640   -2.0660    0.0000 H   0  0
  1 11  1  0
  1 15  1  0
  2  9  1  0
  2 38  1  0
  3 11  2  0
  4 12  2  0
  5  6  1  0
  5  7  1  0
  5  8  1  0
  5 24  1  0
  6  9  2  0
  6 11  1  0
  7 12  1  0
  7 25  1  0
  7 26  1  0
  8 13  2  0
  8 14  1  0
  9 10  1  0
 10 15  2  0
 10 16  1  0
 12 20  1  0
 13 17  1  0
 13 27  1  0
 14 18  2  0
 14 28  1  0
 15 19  1  0
 16 22  2  0
 16 29  1  0
 17 21  2  0
 17 30  1  0
 18 21  1  0
 18 31  1  0
 19 23  2  0
 19 32  1  0
 20 33  1  0
 20 34  1  0
 20 35  1  0
 21 36  1  0
 22 23  1  0
 22 37  1  0
 23 39  1  0
M  END
> <Name>
54678486

> <PUBCHEM_COMPOUND_CID>
54678486

> <Toxicity>
0

> <Data Set>
TrainingSet

$$$$
5719
  SciTegic12242523262D

 38 40  0  0  0  0            999 V2000
    4.5980   -4.1030    0.0000 O   0  0
    3.7320   -2.6030    0.0000 N   0  0
    6.3300    0.8970    0.0000 N   0  0
    7.2760    0.5920    0.0000 N   0  0
    5.4640    2.3970    0.0000 N   0  0
    7.8980    4.1030    0.0000 N   0  0
    5.4640   -0.6030    0.0000 C   0  0
    4.5980   -2.1030    0.0000 C   0  0
    5.4640    0.3970    0.0000 C   0  0
    4.5980   -1.1030    0.0000 C   0  0
    2.8660   -2.1030    0.0000 C   0  0
    6.3300   -1.1030    0.0000 C   0  0
    5.4640   -2.6030    0.0000 C   0  0
    6.3300    1.8970    0.0000 C   0  0
    6.3300   -2.1030    0.0000 C   0  0
    4.5980    0.8970    0.0000 C   0  0
    3.7320   -3.6030    0.0000 C   0  0
    2.0000   -2.6030    0.0000 C   0  0
    7.2760    2.2020    0.0000 C   0  0
    4.5980    1.8970    0.0000 C   0  0
    7.8600    1.3970    0.0000 C   0  0
    2.8660   -4.1030    0.0000 C   0  0
    7.5870    3.1520    0.0000 C   0  0
    4.0610   -0.7930    0.0000 H   0  0
    3.2650   -1.6280    0.0000 H   0  0
    2.4680   -1.6280    0.0000 H   0  0
    6.8670   -0.7930    0.0000 H   0  0
    5.4640   -3.2230    0.0000 H   0  0
    6.8670   -2.4130    0.0000 H   0  0
    4.0610    0.5870    0.0000 H   0  0
    1.6900   -2.0660    0.0000 H   0  0
    1.4630   -2.9130    0.0000 H   0  0
    2.3100   -3.1400    0.0000 H   0  0
    4.0610    2.2070    0.0000 H   0  0
    8.4800    1.3970    0.0000 H   0  0
    2.5560   -3.5660    0.0000 H   0  0
    2.3290   -4.4130    0.0000 H   0  0
    3.1760   -4.6400    0.0000 H   0  0
  1 17  2  0
  2  8  1  0
  2 11  1  0
  2 17  1  0
  3  4  1  0
  3  9  1  0
  3 14  1  0
  4 21  2  0
  5 14  1  0
  5 20  2  0
  6 23  3  0
  7  9  1  0
  7 10  2  0
  7 12  1  0
  8 10  1  0
  8 13  2  0
  9 16  2  0
 10 24  1  0
 11 18  1  0
 11 25  1  0
 11 26  1  0
 12 15  2  0
 12 27  1  0
 13 15  1  0
 13 28  1  0
 14 19  2  0
 15 29  1  0
 16 20  1  0
 16 30  1  0
 17 22  1  0
 18 31  1  0
 18 32  1  0
 18 33  1  0
 19 21  1  0
 19 23  1  0
 20 34  1  0
 21 35  1  0
 22 36  1  0
 22 37  1  0
 22 38  1  0
M  END
> <Name>
5719

> <PUBCHEM_COMPOUND_CID>
5719

> <Toxicity>
0

> <Data Set>
TrainingSet

$$$$
60855
  SciTegic12242523262D

 43 43  0  0  1  0            999 V2000
    6.8670   -0.6900    0.0000 O   0  0
    7.7330    1.8100    0.0000 O   0  0
    8.5990   -0.6900    0.0000 O   0  0
   10.3310    0.3100    0.0000 O   0  0
    4.2690    1.8100    0.0000 O   0  0
    5.1350   -2.6900    0.0000 O   0  0
    6.8670   -2.6900    0.0000 O   0  0
    6.0010    1.8100    0.0000 N   0  0
    4.2690    0.8100    0.0000 N   0  0
    2.5370    0.8100    0.0000 N   0  0
    3.4030   -0.6900    0.0000 N   0  0
    6.8670    0.3100    0.0000 C   0  0  2  0  0  0
    6.0010    0.8100    0.0000 C   0  0  1  0  0  0
    7.7330    0.8100    0.0000 C   0  0  1  0  0  0
    5.1350    0.3100    0.0000 C   0  0  2  0  0  0
    8.5990    0.3100    0.0000 C   0  0  1  0  0  0
    5.1350   -0.6900    0.0000 C   0  0
    6.0010   -1.1900    0.0000 C   0  0
    9.4650    0.8100    0.0000 C   0  0
    5.1350    2.3100    0.0000 C   0  0
    6.0010   -2.1900    0.0000 C   0  0
    3.4030    0.3100    0.0000 C   0  0
    5.1350    3.3100    0.0000 C   0  0
    7.6030   -0.1150    0.0000 H   0  0
    6.5380    1.1200    0.0000 H   0  0
    8.2700    1.1200    0.0000 H   0  0
    5.1350    0.9300    0.0000 H   0  0
    8.0620    0.0000    0.0000 H   0  0
    6.5380    2.1200    0.0000 H   0  0
    4.5980   -1.0000    0.0000 H   0  0
    9.8640    1.2850    0.0000 H   0  0
    9.0670    1.2850    0.0000 H   0  0
    8.2700    2.1200    0.0000 H   0  0
    9.1360   -1.0000    0.0000 H   0  0
    5.7550    3.3100    0.0000 H   0  0
    5.1350    3.9300    0.0000 H   0  0
    4.5150    3.3100    0.0000 H   0  0
   10.8680    0.6200    0.0000 H   0  0
    2.0000    0.5000    0.0000 H   0  0
    2.5370    1.4300    0.0000 H   0  0
    2.8660   -1.0000    0.0000 H   0  0
    3.9400   -1.0000    0.0000 H   0  0
    5.1350   -3.3100    0.0000 H   0  0
  1 12  1  0
  1 18  1  0
 14  2  1  6
  2 33  1  0
 16  3  1  1
  3 34  1  0
  4 19  1  0
  4 38  1  0
  5 20  2  0
  6 21  1  0
  6 43  1  0
  7 21  2  0
 13  8  1  1
  8 20  1  0
  8 29  1  0
 15  9  1  6
  9 22  2  0
 10 22  1  0
 10 39  1  0
 10 40  1  0
 11 22  1  0
 11 41  1  0
 11 42  1  0
 12 13  1  0
 12 14  1  0
 12 24  1  1
 13 15  1  0
 13 25  1  6
 14 16  1  0
 14 26  1  1
 15 17  1  0
 15 27  1  1
 16 19  1  0
 16 28  1  6
 17 18  2  0
 17 30  1  0
 18 21  1  0
 19 31  1  0
 19 32  1  0
 20 23  1  0
 23 35  1  0
 23 36  1  0
 23 37  1  0
M  END
> <Name>
60855

> <PUBCHEM_COMPOUND_CID>
60855

> <Toxicity>
0

> <Data Set>
TrainingSet

$$$$
60854
  SciTegic12242523262D

 49 53  0  0  0  0            999 V2000
    7.0390   -3.7480    0.0000 Cl  0  0
    2.0000    1.5840    0.0000 S   0  0
   12.1670   -2.7480    0.0000 O   0  0
    6.1730   -0.2480    0.0000 N   0  0
    4.4410    0.7520    0.0000 N   0  0
    2.6670    0.8470    0.0000 N   0  0
   10.5830   -3.5530    0.0000 N   0  0
    5.3070   -0.7480    0.0000 C   0  0
    6.1730    0.7520    0.0000 C   0  0
    4.4410   -0.2480    0.0000 C   0  0
    5.3070    1.2520    0.0000 C   0  0
    7.0390   -0.7480    0.0000 C   0  0
    7.0390   -1.7480    0.0000 C   0  0
    3.5750    1.2520    0.0000 C   0  0
    7.9050   -2.2480    0.0000 C   0  0
    3.4720    2.2410    0.0000 C   0  0
    9.6370   -2.2480    0.0000 C   0  0
    8.7710   -1.7480    0.0000 C   0  0
    9.6370   -3.2480    0.0000 C   0  0
    7.9050   -3.2480    0.0000 C   0  0
   10.5830   -1.9430    0.0000 C   0  0
    2.4930    2.4470    0.0000 C   0  0
    8.7710   -3.7480    0.0000 C   0  0
   11.1670   -2.7480    0.0000 C   0  0
    4.1400    2.9850    0.0000 C   0  0
    2.1830    3.3980    0.0000 C   0  0
    3.8290    3.9360    0.0000 C   0  0
    2.8500    4.1420    0.0000 C   0  0
    4.9080   -1.2230    0.0000 H   0  0
    5.7060   -1.2230    0.0000 H   0  0
    6.7840    0.6440    0.0000 H   0  0
    6.3850    1.3350    0.0000 H   0  0
    3.8300   -0.1400    0.0000 H   0  0
    4.2290   -0.8300    0.0000 H   0  0
    5.7060    1.7270    0.0000 H   0  0
    4.9080    1.7270    0.0000 H   0  0
    7.6500   -0.8560    0.0000 H   0  0
    7.2510   -0.1650    0.0000 H   0  0
    6.4280   -1.6400    0.0000 H   0  0
    6.8270   -2.3300    0.0000 H   0  0
    8.7710   -1.1280    0.0000 H   0  0
   11.1210   -1.6340    0.0000 H   0  0
   10.3320   -1.3760    0.0000 H   0  0
    8.7710   -4.3680    0.0000 H   0  0
   10.7760   -4.1420    0.0000 H   0  0
    4.7460    2.8570    0.0000 H   0  0
    1.5760    3.5260    0.0000 H   0  0
    4.2430    4.3970    0.0000 H   0  0
    2.6580    4.7310    0.0000 H   0  0
  1 20  1  0
  2  6  1  0
  2 22  1  0
  3 24  2  0
  4  8  1  0
  4  9  1  0
  4 12  1  0
  5 10  1  0
  5 11  1  0
  5 14  1  0
  6 14  2  0
  7 19  1  0
  7 24  1  0
  7 45  1  0
  8 10  1  0
  8 29  1  0
  8 30  1  0
  9 11  1  0
  9 31  1  0
  9 32  1  0
 10 33  1  0
 10 34  1  0
 11 35  1  0
 11 36  1  0
 12 13  1  0
 12 37  1  0
 12 38  1  0
 13 15  1  0
 13 39  1  0
 13 40  1  0
 14 16  1  0
 15 18  2  0
 15 20  1  0
 16 22  2  0
 16 25  1  0
 17 18  1  0
 17 19  2  0
 17 21  1  0
 18 41  1  0
 19 23  1  0
 20 23  2  0
 21 24  1  0
 21 42  1  0
 21 43  1  0
 22 26  1  0
 23 44  1  0
 25 27  2  0
 25 46  1  0
 26 28  2  0
 26 47  1  0
 27 28  1  0
 27 48  1  0
 28 49  1  0
M  END
> <Name>
60854

> <PUBCHEM_COMPOUND_CID>
60854

> <Toxicity>
0

> <Data Set>
TestSet

$$$$
5734
  SciTegic12242523262D

 22 23  0  0  0  0            999 V2000
    5.9670    0.9920    0.0000 S   0  0
    4.6780   -1.7750    0.0000 O   0  0
    5.7610    1.9700    0.0000 O   0  0
    6.1740    0.0130    0.0000 O   0  0
    5.2620   -0.9700    0.0000 N   0  0
    6.9460    1.1980    0.0000 N   0  0
    4.9890    0.7850    0.0000 C   0  0
    4.6780   -0.1650    0.0000 C   0  0
    3.7320   -0.4700    0.0000 C   0  0
    3.7320   -1.4700    0.0000 C   0  0
    2.8660    0.0300    0.0000 C   0  0
    2.8660   -1.9700    0.0000 C   0  0
    2.0000   -0.4700    0.0000 C   0  0
    2.0000   -1.4700    0.0000 C   0  0
    4.9680    1.4050    0.0000 H   0  0
    4.3750    0.8730    0.0000 H   0  0
    2.8660    0.6500    0.0000 H   0  0
    2.8660   -2.5900    0.0000 H   0  0
    1.4630   -0.1600    0.0000 H   0  0
    1.4630   -1.7800    0.0000 H   0  0
    7.1390    1.7870    0.0000 H   0  0
    7.3600    0.7360    0.0000 H   0  0
  1  3  2  0
  1  4  2  0
  1  6  1  0
  1  7  1  0
  2  5  1  0
  2 10  1  0
  5  8  2  0
  6 21  1  0
  6 22  1  0
  7  8  1  0
  7 15  1  0
  7 16  1  0
  8  9  1  0
  9 10  2  0
  9 11  1  0
 10 12  1  0
 11 13  2  0
 11 17  1  0
 12 14  2  0
 12 18  1  0
 13 14  1  0
 13 19  1  0
 14 20  1  0
M  END
> <Name>
5734

> <PUBCHEM_COMPOUND_CID>
5734

> <Toxicity>
1

> <Data Set>
TrainingSet

$$$$
5735
  SciTegic12242523262D

 44 47  0  0  1  0            999 V2000
    9.2620   -2.2730    0.0000 Cl  0  0
    4.9890   -0.5180    0.0000 O   0  0
    3.3430    0.0200    0.0000 O   0  0
    4.9890   -4.0280    0.0000 O   0  0
    4.6320    1.1770    0.0000 N   0  0
    5.2530    3.0780    0.0000 N   0  0
    5.2620   -2.2730    0.0000 N   0  0
    2.8660   -1.2730    0.0000 N   0  0
    2.8660   -3.2730    0.0000 N   0  0
    6.7620   -1.4070    0.0000 N   0  0
    3.9640    1.9210    0.0000 C   0  0
    5.6100    1.3830    0.0000 C   0  0
    4.2750    2.8720    0.0000 C   0  0
    5.9210    2.3340    0.0000 C   0  0
    4.6780   -1.4680    0.0000 C   0  0
    4.3210    0.2260    0.0000 C   0  0
    5.5640    4.0280    0.0000 C   0  0
    3.7320   -1.7730    0.0000 C   0  0
    3.7320   -2.7730    0.0000 C   0  0
    4.6780   -3.0780    0.0000 C   0  0
    6.2620   -2.2730    0.0000 C   0  0
    6.7620   -3.1390    0.0000 C   0  0
    2.0000   -1.7730    0.0000 C   0  0
    2.0000   -2.7730    0.0000 C   0  0
    7.7620   -3.1390    0.0000 C   0  0
    7.7620   -1.4070    0.0000 C   0  0
    8.2620   -2.2730    0.0000 C   0  0
    3.4170    2.2130    0.0000 H   0  0
    3.5810    1.4330    0.0000 H   0  0
    5.6310    0.7630    0.0000 H   0  0
    6.2240    1.2960    0.0000 H   0  0
    4.2540    3.4910    0.0000 H   0  0
    3.6610    2.9590    0.0000 H   0  0
    6.4680    2.0420    0.0000 H   0  0
    6.3040    2.8220    0.0000 H   0  0
    4.2410   -1.0290    0.0000 H   0  0
    6.1530    3.8360    0.0000 H   0  0
    5.7560    4.6180    0.0000 H   0  0
    4.9740    4.2210    0.0000 H   0  0
    6.4520   -3.6760    0.0000 H   0  0
    1.4630   -1.4630    0.0000 H   0  0
    1.4630   -3.0830    0.0000 H   0  0
    8.0720   -3.6760    0.0000 H   0  0
    8.0720   -0.8700    0.0000 H   0  0
  1 27  1  0
  2 15  1  0
  2 16  1  0
  3 16  2  0
  4 20  2  0
  5 11  1  0
  5 12  1  0
  5 16  1  0
  6 13  1  0
  6 14  1  0
  6 17  1  0
  7 15  1  0
  7 20  1  0
  7 21  1  0
  8 18  2  0
  8 23  1  0
  9 19  2  0
  9 24  1  0
 10 21  1  0
 10 26  2  0
 11 13  1  0
 11 28  1  0
 11 29  1  0
 12 14  1  0
 12 30  1  0
 12 31  1  0
 13 32  1  0
 13 33  1  0
 14 34  1  0
 14 35  1  0
 15 18  1  0
 15 36  1  0
 17 37  1  0
 17 38  1  0
 17 39  1  0
 18 19  1  0
 19 20  1  0
 21 22  2  0
 22 25  1  0
 22 40  1  0
 23 24  2  0
 23 41  1  0
 24 42  1  0
 25 27  2  0
 25 43  1  0
 26 27  1  0
 26 44  1  0
M  END
> <Name>
5735

> <PUBCHEM_COMPOUND_CID>
5735

> <Toxicity>
0

> <Data Set>
TrainingSet

$$$$
86294073
  SciTegic12242523262D

 65 69  0  0  1  0            999 V2000
    2.3080   -3.2880    0.0000 O   0  0
    8.4220    1.2630    0.0000 O   0  0
   10.3790    1.6760    0.0000 N   0  0
    9.7930    2.4860    0.0000 N   0  0
   12.9520    4.1560    0.0000 N   0  0
    7.8330   -1.7360    0.0000 C   0  0  1  0  0  0
    6.9670   -2.2360    0.0000 C   0  0  1  0  0  0
    7.8330   -0.7360    0.0000 C   0  0  2  0  0  0
    6.1010   -1.7360    0.0000 C   0  0  1  0  0  0
    5.1910   -2.2430    0.0000 C   0  0  2  0  0  0
    6.9670   -0.2360    0.0000 C   0  0
    5.1830   -3.2850    0.0000 C   0  0  2  0  0  0
    6.1010   -0.7360    0.0000 C   0  0
    8.7790   -0.4320    0.0000 C   0  0  2  0  0  0
    8.7790   -2.0410    0.0000 C   0  0
    6.9830   -3.2780    0.0000 C   0  0
    6.0850   -3.8050    0.0000 C   0  0
    9.3630   -1.2360    0.0000 C   0  0
    4.2640   -1.6790    0.0000 C   0  0
    4.2480   -3.8340    0.0000 C   0  0
    7.8330    0.2640    0.0000 C   0  0
    3.3080   -3.2920    0.0000 C   0  0  1  0  0  0
    3.3160   -2.2070    0.0000 C   0  0
    9.0900    0.5190    0.0000 C   0  0
    2.8050   -4.1560    0.0000 C   0  0
   10.0680    0.7250    0.0000 C   0  0
   11.3310    1.9830    0.0000 C   0  0
   11.3320    2.9830    0.0000 C   0  0
   10.3820    3.2940    0.0000 C   0  0
   12.1420    3.5700    0.0000 C   0  0
    7.9230   -2.5810    0.0000 H   0  0
    7.7060   -2.6560    0.0000 H   0  0
    6.8370   -1.3110    0.0000 H   0  0
    5.2070   -1.3930    0.0000 H   0  0
    7.3660    0.2390    0.0000 H   0  0
    6.5680    0.2390    0.0000 H   0  0
    5.1860   -4.1350    0.0000 H   0  0
    5.8890   -0.1540    0.0000 H   0  0
    5.4900   -0.8440    0.0000 H   0  0
    9.3920   -0.3350    0.0000 H   0  0
    8.5280   -2.6080    0.0000 H   0  0
    9.3170   -2.3500    0.0000 H   0  0
    7.2010   -3.8580    0.0000 H   0  0
    7.5920   -3.1620    0.0000 H   0  0
    5.6880   -4.2810    0.0000 H   0  0
    6.4860   -4.2780    0.0000 H   0  0
    9.8240   -1.6510    0.0000 H   0  0
    9.8240   -0.8220    0.0000 H   0  0
    4.6720   -1.2120    0.0000 H   0  0
    3.8740   -1.1970    0.0000 H   0  0
    3.8500   -4.3100    0.0000 H   0  0
    4.6480   -4.3070    0.0000 H   0  0
    8.4530    0.2640    0.0000 H   0  0
    7.8330    0.8840    0.0000 H   0  0
    7.2130    0.2640    0.0000 H   0  0
    3.1120   -1.6220    0.0000 H   0  0
    2.7050   -2.3080    0.0000 H   0  0
    2.2690   -3.8440    0.0000 H   0  0
    2.4920   -4.6920    0.0000 H   0  0
    3.3400   -4.4680    0.0000 H   0  0
   10.0890    0.1060    0.0000 H   0  0
   10.6820    0.6380    0.0000 H   0  0
    2.0000   -2.7500    0.0000 H   0  0
   11.8320    1.6180    0.0000 H   0  0
   10.1910    3.8840    0.0000 H   0  0
 22  1  1  6
  1 63  1  0
  2 24  2  0
  3  4  1  0
  3 26  1  0
  3 27  1  0
  4 29  2  0
  5 30  3  0
  6  7  1  0
  6  8  1  0
  6 15  1  0
  6 31  1  6
  7  9  1  0
  7 16  1  0
  7 32  1  1
  8 11  1  0
  8 14  1  0
  8 21  1  1
  9 10  1  0
  9 13  1  0
  9 33  1  6
 10 12  1  0
 10 19  1  0
 10 34  1  1
 11 13  1  0
 11 35  1  0
 11 36  1  0
 12 17  1  0
 12 20  1  0
 12 37  1  1
 13 38  1  0
 13 39  1  0
 14 18  1  0
 14 24  1  1
 14 40  1  6
 15 18  1  0
 15 41  1  0
 15 42  1  0
 16 17  1  0
 16 43  1  0
 16 44  1  0
 17 45  1  0
 17 46  1  0
 18 47  1  0
 18 48  1  0
 19 23  1  0
 19 49  1  0
 19 50  1  0
 20 22  1  0
 20 51  1  0
 20 52  1  0
 21 53  1  0
 21 54  1  0
 21 55  1  0
 22 23  1  0
 22 25  1  1
 23 56  1  0
 23 57  1  0
 24 26  1  0
 25 58  1  0
 25 59  1  0
 25 60  1  0
 26 61  1  0
 26 62  1  0
 27 28  2  0
 27 64  1  0
 28 29  1  0
 28 30  1  0
 29 65  1  0
M  END
> <Name>
86294073

> <PUBCHEM_COMPOUND_CID>
86294073

> <Toxicity>
0

> <Data Set>
TrainingSet

$$$$
